*SPEF "ieee 1481-1999"
*DESIGN "tiny_user_project"
*DATE "11:11:11 Fri 11 11, 1111"
*VENDOR "OpenRCX"
*PROGRAM "Parallel Extraction"
*VERSION "1.0"
*DESIGN_FLOW "NAME_SCOPE LOCAL" "PIN_CAP NONE"
*DIVIDER /
*DELIMITER :
*BUS_DELIMITER []
*T_UNIT 1 NS
*C_UNIT 1 PF
*R_UNIT 1 OHM
*L_UNIT 1 HENRY

*NAME_MAP
*1 io_in[0]
*2 io_in[10]
*3 io_in[11]
*4 io_in[12]
*5 io_in[13]
*6 io_in[14]
*7 io_in[15]
*8 io_in[16]
*9 io_in[17]
*10 io_in[18]
*11 io_in[19]
*12 io_in[1]
*13 io_in[20]
*14 io_in[21]
*15 io_in[22]
*16 io_in[23]
*17 io_in[24]
*18 io_in[25]
*19 io_in[26]
*20 io_in[27]
*21 io_in[28]
*22 io_in[29]
*23 io_in[2]
*24 io_in[30]
*25 io_in[31]
*26 io_in[32]
*27 io_in[33]
*28 io_in[34]
*29 io_in[35]
*30 io_in[36]
*31 io_in[37]
*32 io_in[3]
*33 io_in[4]
*34 io_in[5]
*35 io_in[6]
*36 io_in[7]
*37 io_in[8]
*38 io_in[9]
*39 net129
*40 net139
*41 net140
*42 net141
*43 net142
*44 net143
*45 net144
*46 net145
*47 net146
*48 net147
*49 net148
*50 net130
*51 net149
*52 net150
*53 net151
*54 net152
*55 net153
*56 net154
*57 net155
*58 net156
*59 net157
*60 net158
*61 net131
*62 net159
*63 net160
*64 net161
*65 net162
*66 net163
*67 net164
*68 net165
*69 net166
*70 net132
*71 net133
*72 net134
*73 net135
*74 net136
*75 net137
*76 net138
*77 net100
*78 net110
*79 net111
*80 net112
*81 net113
*82 net114
*83 net115
*84 net116
*85 net117
*86 io_out[18]
*87 io_out[19]
*88 net101
*89 io_out[20]
*90 io_out[21]
*91 io_out[22]
*92 io_out[23]
*93 io_out[24]
*94 io_out[25]
*95 io_out[26]
*96 net118
*97 net119
*98 net120
*99 net102
*100 net121
*101 net122
*102 net123
*103 net124
*104 net125
*105 net126
*106 net127
*107 net128
*108 net103
*109 net104
*110 net105
*111 net106
*112 net107
*113 net108
*114 net109
*115 la_data_in[0]
*116 la_data_in[10]
*117 la_data_in[11]
*118 la_data_in[12]
*119 la_data_in[13]
*120 la_data_in[14]
*121 la_data_in[15]
*122 la_data_in[16]
*123 la_data_in[17]
*124 la_data_in[18]
*125 la_data_in[19]
*126 la_data_in[1]
*127 la_data_in[20]
*128 la_data_in[21]
*129 la_data_in[22]
*130 la_data_in[23]
*131 la_data_in[24]
*132 la_data_in[25]
*133 la_data_in[26]
*134 la_data_in[27]
*135 la_data_in[28]
*136 la_data_in[29]
*137 la_data_in[2]
*138 la_data_in[30]
*139 la_data_in[31]
*140 la_data_in[32]
*141 la_data_in[33]
*142 la_data_in[34]
*143 la_data_in[35]
*144 la_data_in[36]
*145 la_data_in[37]
*146 la_data_in[38]
*147 la_data_in[39]
*148 la_data_in[3]
*149 la_data_in[40]
*150 la_data_in[41]
*151 la_data_in[42]
*152 la_data_in[43]
*153 la_data_in[44]
*154 la_data_in[45]
*155 la_data_in[46]
*156 la_data_in[47]
*157 la_data_in[48]
*158 la_data_in[49]
*159 la_data_in[4]
*160 la_data_in[50]
*161 la_data_in[51]
*162 la_data_in[52]
*163 la_data_in[53]
*164 la_data_in[54]
*165 la_data_in[55]
*166 la_data_in[56]
*167 la_data_in[57]
*168 la_data_in[58]
*169 la_data_in[59]
*170 la_data_in[5]
*171 la_data_in[60]
*172 la_data_in[61]
*173 la_data_in[62]
*174 la_data_in[63]
*175 la_data_in[6]
*176 la_data_in[7]
*177 la_data_in[8]
*178 la_data_in[9]
*179 net36
*180 net46
*181 net47
*182 net48
*183 net49
*184 net50
*185 net51
*186 net52
*187 net53
*188 net54
*189 net55
*190 net37
*191 net56
*192 net57
*193 net58
*194 net59
*195 net60
*196 net61
*197 net62
*198 net63
*199 net64
*200 net65
*201 net38
*202 net66
*203 net67
*204 net68
*205 net69
*206 net70
*207 net71
*208 net72
*209 net73
*210 net74
*211 net75
*212 net39
*213 net76
*214 net77
*215 net78
*216 net79
*217 net80
*218 net81
*219 net82
*220 net83
*221 net84
*222 net85
*223 net40
*224 net86
*225 net87
*226 net88
*227 net89
*228 net90
*229 net91
*230 net92
*231 net93
*232 net94
*233 net95
*234 net41
*235 net96
*236 net97
*237 net98
*238 net99
*239 net42
*240 net43
*241 net44
*242 net45
*243 la_oenb[0]
*244 la_oenb[10]
*245 la_oenb[11]
*246 la_oenb[12]
*247 la_oenb[13]
*248 la_oenb[14]
*249 la_oenb[15]
*250 la_oenb[16]
*251 la_oenb[17]
*252 la_oenb[18]
*253 la_oenb[19]
*254 la_oenb[1]
*255 la_oenb[20]
*256 la_oenb[21]
*257 la_oenb[22]
*258 la_oenb[23]
*259 la_oenb[24]
*260 la_oenb[25]
*261 la_oenb[26]
*262 la_oenb[27]
*263 la_oenb[28]
*264 la_oenb[29]
*265 la_oenb[2]
*266 la_oenb[30]
*267 la_oenb[31]
*268 la_oenb[32]
*269 la_oenb[33]
*270 la_oenb[34]
*271 la_oenb[35]
*272 la_oenb[36]
*273 la_oenb[37]
*274 la_oenb[38]
*275 la_oenb[39]
*276 la_oenb[3]
*277 la_oenb[40]
*278 la_oenb[41]
*279 la_oenb[42]
*280 la_oenb[43]
*281 la_oenb[44]
*282 la_oenb[45]
*283 la_oenb[46]
*284 la_oenb[47]
*285 la_oenb[48]
*286 la_oenb[49]
*287 la_oenb[4]
*288 la_oenb[50]
*289 la_oenb[51]
*290 la_oenb[52]
*291 la_oenb[53]
*292 la_oenb[54]
*293 la_oenb[55]
*294 la_oenb[56]
*295 la_oenb[57]
*296 la_oenb[58]
*297 la_oenb[59]
*298 la_oenb[5]
*299 la_oenb[60]
*300 la_oenb[61]
*301 la_oenb[62]
*302 la_oenb[63]
*303 la_oenb[6]
*304 la_oenb[7]
*305 la_oenb[8]
*306 la_oenb[9]
*307 user_clock2
*308 net167
*309 net168
*310 net169
*313 wb_clk_i
*314 wb_rst_i
*315 net170
*316 wbs_adr_i[0]
*317 wbs_adr_i[10]
*318 wbs_adr_i[11]
*319 wbs_adr_i[12]
*320 wbs_adr_i[13]
*321 wbs_adr_i[14]
*322 wbs_adr_i[15]
*323 wbs_adr_i[16]
*324 wbs_adr_i[17]
*325 wbs_adr_i[18]
*326 wbs_adr_i[19]
*327 wbs_adr_i[1]
*328 wbs_adr_i[20]
*329 wbs_adr_i[21]
*330 wbs_adr_i[22]
*331 wbs_adr_i[23]
*332 wbs_adr_i[24]
*333 wbs_adr_i[25]
*334 wbs_adr_i[26]
*335 wbs_adr_i[27]
*336 wbs_adr_i[28]
*337 wbs_adr_i[29]
*338 wbs_adr_i[2]
*339 wbs_adr_i[30]
*340 wbs_adr_i[31]
*341 wbs_adr_i[3]
*342 wbs_adr_i[4]
*343 wbs_adr_i[5]
*344 wbs_adr_i[6]
*345 wbs_adr_i[7]
*346 wbs_adr_i[8]
*347 wbs_adr_i[9]
*348 wbs_cyc_i
*349 wbs_dat_i[0]
*350 wbs_dat_i[10]
*351 wbs_dat_i[11]
*352 wbs_dat_i[12]
*353 wbs_dat_i[13]
*354 wbs_dat_i[14]
*355 wbs_dat_i[15]
*356 wbs_dat_i[16]
*357 wbs_dat_i[17]
*358 wbs_dat_i[18]
*359 wbs_dat_i[19]
*360 wbs_dat_i[1]
*361 wbs_dat_i[20]
*362 wbs_dat_i[21]
*363 wbs_dat_i[22]
*364 wbs_dat_i[23]
*365 wbs_dat_i[24]
*366 wbs_dat_i[25]
*367 wbs_dat_i[26]
*368 wbs_dat_i[27]
*369 wbs_dat_i[28]
*370 wbs_dat_i[29]
*371 wbs_dat_i[2]
*372 wbs_dat_i[30]
*373 wbs_dat_i[31]
*374 wbs_dat_i[3]
*375 wbs_dat_i[4]
*376 wbs_dat_i[5]
*377 wbs_dat_i[6]
*378 wbs_dat_i[7]
*379 wbs_dat_i[8]
*380 wbs_dat_i[9]
*381 net171
*382 net181
*383 net182
*384 net183
*385 net184
*386 net185
*387 net186
*388 net187
*389 net188
*390 net189
*391 net190
*392 net172
*393 net191
*394 net192
*395 net193
*396 net194
*397 net195
*398 net196
*399 net197
*400 net198
*401 net199
*402 net200
*403 net173
*404 net201
*405 net202
*406 net174
*407 net175
*408 net176
*409 net177
*410 net178
*411 net179
*412 net180
*413 wbs_sel_i[0]
*414 wbs_sel_i[1]
*415 wbs_sel_i[2]
*416 wbs_sel_i[3]
*417 wbs_stb_i
*418 wbs_we_i
*419 _000_
*420 _001_
*421 _002_
*422 _003_
*423 _004_
*424 _005_
*425 _006_
*426 _007_
*427 _008_
*428 _009_
*429 _010_
*430 _011_
*431 _012_
*432 _013_
*433 _014_
*434 _015_
*435 _016_
*436 _017_
*437 _018_
*438 _019_
*439 _020_
*440 _021_
*441 _022_
*442 _023_
*443 _024_
*444 _025_
*445 _026_
*446 _027_
*447 _028_
*448 _029_
*449 _030_
*450 _031_
*451 _032_
*452 _033_
*453 _034_
*454 _035_
*455 _036_
*456 _037_
*457 _038_
*458 _039_
*459 _040_
*460 _041_
*461 _042_
*462 _043_
*463 _044_
*464 _045_
*465 _046_
*466 _047_
*467 _048_
*468 _049_
*469 _050_
*470 _051_
*471 _052_
*472 _053_
*473 _054_
*474 _055_
*475 _056_
*476 _057_
*477 _058_
*478 _059_
*479 _060_
*480 _061_
*481 _062_
*482 _063_
*483 _064_
*484 _065_
*485 _066_
*486 _067_
*487 _068_
*488 _069_
*489 _070_
*490 _071_
*491 _072_
*492 _073_
*493 _074_
*494 _075_
*495 mod\.dice0\.DiceValue\[0\]
*496 mod\.dice0\.DiceValue\[1\]
*497 mod\.dice0\.cont1\.enable_reg
*498 mod\.dice0\.rand1\.lfsr\[0\]\.D
*499 mod\.dice0\.rand1\.lfsr\[0\]\.Q
*500 mod\.dice0\.rand1\.lfsr\[10\]\.D
*501 mod\.dice0\.rand1\.lfsr\[10\]\.Q
*502 mod\.dice0\.rand1\.lfsr\[1\]\.D
*503 mod\.dice0\.rand1\.lfsr\[2\]\.D
*504 mod\.dice0\.rand1\.lfsr\[2\]\.nQ
*505 mod\.dice0\.rand1\.lfsr\[3\]\.D
*506 mod\.dice0\.rand1\.lfsr\[4\]\.D
*507 mod\.dice0\.rand1\.lfsr\[5\]\.D
*508 mod\.dice0\.rand1\.lfsr\[6\]\.D
*509 mod\.dice0\.rand1\.lfsr\[7\]\.D
*510 mod\.dice0\.rand1\.lfsr\[8\]\.D
*511 mod\.pdm_core\.accumulator\[0\]
*512 mod\.pdm_core\.accumulator\[1\]
*513 mod\.pdm_core\.accumulator\[2\]
*514 mod\.pdm_core\.accumulator\[3\]
*515 mod\.pdm_core\.accumulator\[4\]
*516 mod\.pdm_core\.input_reg\[0\]
*517 mod\.pdm_core\.input_reg\[1\]
*518 mod\.pdm_core\.input_reg\[2\]
*519 mod\.pdm_core\.input_reg\[3\]
*520 mod\.pdm_core\.input_reg\[4\]
*521 mod\.pdm_core\.sum\[0\]
*522 mod\.pdm_core\.sum\[1\]
*523 mod\.pdm_core\.sum\[2\]
*524 mod\.pdm_core\.sum\[3\]
*525 mod\.pdm_core\.sum\[4\]
*526 net1
*527 net10
*528 net11
*529 net12
*530 net13
*531 net14
*532 net15
*533 net16
*534 net17
*535 net18
*536 net19
*537 net2
*538 net20
*539 net21
*540 net22
*541 net23
*542 net24
*543 net25
*544 net26
*545 net27
*546 net28
*547 net29
*548 net3
*549 net30
*550 net31
*551 net32
*552 net33
*553 net34
*554 net35
*555 net4
*556 net5
*557 net6
*558 net7
*559 net8
*560 net9
*561 ANTENNA__076__I
*562 ANTENNA__077__I1
*563 ANTENNA__077__S
*564 ANTENNA__078__I
*565 ANTENNA__079__I0
*566 ANTENNA__079__I1
*567 ANTENNA__079__S
*568 ANTENNA__081__I0
*569 ANTENNA__081__I1
*570 ANTENNA__081__S
*571 ANTENNA__082__I
*572 ANTENNA__083__I0
*573 ANTENNA__083__I1
*574 ANTENNA__083__S
*575 ANTENNA__085__I0
*576 ANTENNA__085__I1
*577 ANTENNA__085__S
*578 ANTENNA__088__I
*579 ANTENNA__089__I
*580 ANTENNA__090__I
*581 ANTENNA__092__A1
*582 ANTENNA__094__A1
*583 ANTENNA__095__I
*584 ANTENNA__097__I
*585 ANTENNA__098__A1
*586 ANTENNA__098__A2
*587 ANTENNA__102__A1
*588 ANTENNA__102__A2
*589 ANTENNA__103__A1
*590 ANTENNA__104__A1
*591 ANTENNA__105__A1
*592 ANTENNA__106__A1
*593 ANTENNA__107__A1
*594 ANTENNA__107__B1
*595 ANTENNA__107__B2
*596 ANTENNA__107__C
*597 ANTENNA__108__A1
*598 ANTENNA__108__A2
*599 ANTENNA__114__I
*600 ANTENNA__115__A1
*601 ANTENNA__116__I
*602 ANTENNA__117__A1
*603 ANTENNA__118__I
*604 ANTENNA__119__A1
*605 ANTENNA__119__A2
*606 ANTENNA__121__A1
*607 ANTENNA__121__A2
*608 ANTENNA__121__B
*609 ANTENNA__122__A1
*610 ANTENNA__123__I
*611 ANTENNA__125__A1
*612 ANTENNA__125__A2
*613 ANTENNA__126__I
*614 ANTENNA__129__I
*615 ANTENNA__130__I
*616 ANTENNA__131__I
*617 ANTENNA__132__I
*618 ANTENNA__133__I
*619 ANTENNA__134__I
*620 ANTENNA__135__I
*621 ANTENNA__136__I
*622 ANTENNA__137__I
*623 ANTENNA__138__I
*624 ANTENNA__139__I
*625 ANTENNA__140__I
*626 ANTENNA__141__A1
*627 ANTENNA__143__I
*628 ANTENNA__144__A1
*629 ANTENNA__144__A2
*630 ANTENNA__144__B
*631 ANTENNA__145__A1
*632 ANTENNA__145__A2
*633 ANTENNA__145__B
*634 ANTENNA__146__I
*635 ANTENNA__147__A1
*636 ANTENNA__147__A2
*637 ANTENNA__147__A3
*638 ANTENNA__149__A1
*639 ANTENNA__149__A2
*640 ANTENNA__149__A3
*641 ANTENNA__150__A1
*642 ANTENNA__150__A2
*643 ANTENNA__150__A3
*644 ANTENNA__151__A1
*645 ANTENNA__152__A1
*646 ANTENNA__152__A2
*647 ANTENNA__153__A1
*648 ANTENNA__153__A3
*649 ANTENNA__154__A1
*650 ANTENNA__154__A2
*651 ANTENNA__155__A1
*652 ANTENNA__155__A2
*653 ANTENNA__156__A1
*654 ANTENNA__156__A2
*655 ANTENNA__156__B1
*656 ANTENNA__156__B2
*657 ANTENNA__157__A1
*658 ANTENNA__157__A2
*659 ANTENNA__158__A1
*660 ANTENNA__158__A2
*661 ANTENNA__159__A1
*662 ANTENNA__159__A2
*663 ANTENNA__159__B1
*664 ANTENNA__160__A1
*665 ANTENNA__160__A2
*666 ANTENNA__161__A1
*667 ANTENNA__161__A2
*668 ANTENNA__162__A1
*669 ANTENNA__162__A2
*670 ANTENNA__162__B
*671 ANTENNA__163__RN
*672 ANTENNA__165__RN
*673 ANTENNA__168__CLK
*674 ANTENNA__168__RN
*675 ANTENNA__169__CLK
*676 ANTENNA__169__RN
*677 ANTENNA__170__CLK
*678 ANTENNA__170__RN
*679 ANTENNA__171__RN
*680 ANTENNA__172__CLK
*681 ANTENNA__172__RN
*682 ANTENNA__173__CLK
*683 ANTENNA__173__RN
*684 ANTENNA__174__RN
*685 ANTENNA__175__CLK
*686 ANTENNA__175__RN
*687 ANTENNA__176__CLK
*688 ANTENNA__176__RN
*689 ANTENNA__177__CLK
*690 ANTENNA__177__SETN
*691 ANTENNA__178__CLK
*692 ANTENNA__178__RN
*693 ANTENNA__179__CLK
*694 ANTENNA__179__D
*695 ANTENNA__179__RN
*696 ANTENNA__180__CLK
*697 ANTENNA__180__D
*698 ANTENNA__180__RN
*699 ANTENNA__182__RN
*700 ANTENNA__186__CLK
*701 ANTENNA__186__SETN
*702 ANTENNA__187__CLK
*703 ANTENNA__187__RN
*704 ANTENNA__188__CLK
*705 ANTENNA__188__D
*706 ANTENNA__188__RN
*707 ANTENNA__356__I
*708 ANTENNA__357__I
*709 ANTENNA__358__I
*710 ANTENNA_fanout22_I
*711 ANTENNA_fanout23_I
*712 ANTENNA_fanout26_I
*713 ANTENNA_fanout27_I
*714 ANTENNA_fanout29_I
*715 ANTENNA_fanout30_I
*716 ANTENNA_fanout31_I
*717 ANTENNA_fanout32_I
*718 ANTENNA_fanout33_I
*719 ANTENNA_fanout34_I
*720 ANTENNA_input10_I
*721 ANTENNA_input1_I
*722 ANTENNA_input2_I
*723 ANTENNA_input3_I
*724 ANTENNA_input4_I
*725 ANTENNA_input5_I
*726 ANTENNA_input6_I
*727 ANTENNA_input7_I
*728 ANTENNA_input8_I
*729 ANTENNA_input9_I
*730 ANTENNA_output11_I
*731 ANTENNA_output12_I
*732 ANTENNA_output14_I
*733 ANTENNA_output16_I
*734 ANTENNA_output17_I
*735 ANTENNA_output18_I
*736 ANTENNA_output19_I
*737 FILLER_0_1005
*738 FILLER_0_1009
*739 FILLER_0_101
*740 FILLER_0_1011
*741 FILLER_0_1014
*742 FILLER_0_1017
*743 FILLER_0_1032
*744 FILLER_0_1038
*745 FILLER_0_1044
*746 FILLER_0_107
*747 FILLER_0_11
*748 FILLER_0_115
*749 FILLER_0_119
*750 FILLER_0_125
*751 FILLER_0_133
*752 FILLER_0_137
*753 FILLER_0_139
*754 FILLER_0_142
*755 FILLER_0_174
*756 FILLER_0_177
*757 FILLER_0_2
*758 FILLER_0_209
*759 FILLER_0_212
*760 FILLER_0_228
*761 FILLER_0_233
*762 FILLER_0_237
*763 FILLER_0_239
*764 FILLER_0_244
*765 FILLER_0_247
*766 FILLER_0_251
*767 FILLER_0_257
*768 FILLER_0_263
*769 FILLER_0_27
*770 FILLER_0_279
*771 FILLER_0_282
*772 FILLER_0_287
*773 FILLER_0_299
*774 FILLER_0_317
*775 FILLER_0_323
*776 FILLER_0_329
*777 FILLER_0_345
*778 FILLER_0_349
*779 FILLER_0_352
*780 FILLER_0_368
*781 FILLER_0_37
*782 FILLER_0_372
*783 FILLER_0_377
*784 FILLER_0_387
*785 FILLER_0_395
*786 FILLER_0_411
*787 FILLER_0_419
*788 FILLER_0_422
*789 FILLER_0_426
*790 FILLER_0_431
*791 FILLER_0_447
*792 FILLER_0_449
*793 FILLER_0_454
*794 FILLER_0_457
*795 FILLER_0_462
*796 FILLER_0_466
*797 FILLER_0_468
*798 FILLER_0_483
*799 FILLER_0_489
*800 FILLER_0_492
*801 FILLER_0_508
*802 FILLER_0_516
*803 FILLER_0_521
*804 FILLER_0_527
*805 FILLER_0_53
*806 FILLER_0_543
*807 FILLER_0_551
*808 FILLER_0_559
*809 FILLER_0_562
*810 FILLER_0_59
*811 FILLER_0_594
*812 FILLER_0_597
*813 FILLER_0_6
*814 FILLER_0_602
*815 FILLER_0_608
*816 FILLER_0_612
*817 FILLER_0_617
*818 FILLER_0_625
*819 FILLER_0_629
*820 FILLER_0_632
*821 FILLER_0_65
*822 FILLER_0_664
*823 FILLER_0_667
*824 FILLER_0_672
*825 FILLER_0_676
*826 FILLER_0_678
*827 FILLER_0_683
*828 FILLER_0_69
*829 FILLER_0_695
*830 FILLER_0_699
*831 FILLER_0_702
*832 FILLER_0_718
*833 FILLER_0_72
*834 FILLER_0_726
*835 FILLER_0_731
*836 FILLER_0_737
*837 FILLER_0_749
*838 FILLER_0_761
*839 FILLER_0_769
*840 FILLER_0_77
*841 FILLER_0_772
*842 FILLER_0_777
*843 FILLER_0_793
*844 FILLER_0_801
*845 FILLER_0_807
*846 FILLER_0_827
*847 FILLER_0_835
*848 FILLER_0_839
*849 FILLER_0_842
*850 FILLER_0_874
*851 FILLER_0_877
*852 FILLER_0_885
*853 FILLER_0_893
*854 FILLER_0_909
*855 FILLER_0_912
*856 FILLER_0_93
*857 FILLER_0_944
*858 FILLER_0_947
*859 FILLER_0_952
*860 FILLER_0_960
*861 FILLER_0_964
*862 FILLER_0_966
*863 FILLER_0_971
*864 FILLER_0_979
*865 FILLER_0_982
*866 FILLER_0_987
*867 FILLER_100_101
*868 FILLER_100_1024
*869 FILLER_100_1028
*870 FILLER_100_1031
*871 FILLER_100_1039
*872 FILLER_100_1043
*873 FILLER_100_105
*874 FILLER_100_108
*875 FILLER_100_172
*876 FILLER_100_176
*877 FILLER_100_179
*878 FILLER_100_2
*879 FILLER_100_243
*880 FILLER_100_247
*881 FILLER_100_250
*882 FILLER_100_314
*883 FILLER_100_318
*884 FILLER_100_321
*885 FILLER_100_34
*886 FILLER_100_37
*887 FILLER_100_385
*888 FILLER_100_389
*889 FILLER_100_392
*890 FILLER_100_456
*891 FILLER_100_460
*892 FILLER_100_463
*893 FILLER_100_527
*894 FILLER_100_531
*895 FILLER_100_534
*896 FILLER_100_598
*897 FILLER_100_602
*898 FILLER_100_605
*899 FILLER_100_669
*900 FILLER_100_673
*901 FILLER_100_676
*902 FILLER_100_740
*903 FILLER_100_744
*904 FILLER_100_747
*905 FILLER_100_811
*906 FILLER_100_815
*907 FILLER_100_818
*908 FILLER_100_882
*909 FILLER_100_886
*910 FILLER_100_889
*911 FILLER_100_953
*912 FILLER_100_957
*913 FILLER_100_960
*914 FILLER_101_1028
*915 FILLER_101_1036
*916 FILLER_101_1044
*917 FILLER_101_137
*918 FILLER_101_141
*919 FILLER_101_144
*920 FILLER_101_2
*921 FILLER_101_208
*922 FILLER_101_212
*923 FILLER_101_215
*924 FILLER_101_279
*925 FILLER_101_283
*926 FILLER_101_286
*927 FILLER_101_350
*928 FILLER_101_354
*929 FILLER_101_357
*930 FILLER_101_421
*931 FILLER_101_425
*932 FILLER_101_428
*933 FILLER_101_492
*934 FILLER_101_496
*935 FILLER_101_499
*936 FILLER_101_563
*937 FILLER_101_567
*938 FILLER_101_570
*939 FILLER_101_634
*940 FILLER_101_638
*941 FILLER_101_641
*942 FILLER_101_66
*943 FILLER_101_70
*944 FILLER_101_705
*945 FILLER_101_709
*946 FILLER_101_712
*947 FILLER_101_73
*948 FILLER_101_776
*949 FILLER_101_780
*950 FILLER_101_783
*951 FILLER_101_847
*952 FILLER_101_851
*953 FILLER_101_854
*954 FILLER_101_918
*955 FILLER_101_922
*956 FILLER_101_925
*957 FILLER_101_989
*958 FILLER_101_993
*959 FILLER_101_996
*960 FILLER_102_101
*961 FILLER_102_1024
*962 FILLER_102_1028
*963 FILLER_102_1031
*964 FILLER_102_1039
*965 FILLER_102_1043
*966 FILLER_102_105
*967 FILLER_102_108
*968 FILLER_102_13
*969 FILLER_102_172
*970 FILLER_102_176
*971 FILLER_102_179
*972 FILLER_102_2
*973 FILLER_102_243
*974 FILLER_102_247
*975 FILLER_102_250
*976 FILLER_102_29
*977 FILLER_102_314
*978 FILLER_102_318
*979 FILLER_102_321
*980 FILLER_102_33
*981 FILLER_102_37
*982 FILLER_102_385
*983 FILLER_102_389
*984 FILLER_102_392
*985 FILLER_102_456
*986 FILLER_102_460
*987 FILLER_102_463
*988 FILLER_102_527
*989 FILLER_102_531
*990 FILLER_102_534
*991 FILLER_102_598
*992 FILLER_102_602
*993 FILLER_102_605
*994 FILLER_102_669
*995 FILLER_102_673
*996 FILLER_102_676
*997 FILLER_102_7
*998 FILLER_102_740
*999 FILLER_102_744
*1000 FILLER_102_747
*1001 FILLER_102_811
*1002 FILLER_102_815
*1003 FILLER_102_818
*1004 FILLER_102_882
*1005 FILLER_102_886
*1006 FILLER_102_889
*1007 FILLER_102_953
*1008 FILLER_102_957
*1009 FILLER_102_960
*1010 FILLER_103_1028
*1011 FILLER_103_1036
*1012 FILLER_103_1044
*1013 FILLER_103_137
*1014 FILLER_103_141
*1015 FILLER_103_144
*1016 FILLER_103_2
*1017 FILLER_103_208
*1018 FILLER_103_212
*1019 FILLER_103_215
*1020 FILLER_103_279
*1021 FILLER_103_283
*1022 FILLER_103_286
*1023 FILLER_103_350
*1024 FILLER_103_354
*1025 FILLER_103_357
*1026 FILLER_103_421
*1027 FILLER_103_425
*1028 FILLER_103_428
*1029 FILLER_103_492
*1030 FILLER_103_496
*1031 FILLER_103_499
*1032 FILLER_103_563
*1033 FILLER_103_567
*1034 FILLER_103_570
*1035 FILLER_103_634
*1036 FILLER_103_638
*1037 FILLER_103_641
*1038 FILLER_103_66
*1039 FILLER_103_70
*1040 FILLER_103_705
*1041 FILLER_103_709
*1042 FILLER_103_712
*1043 FILLER_103_73
*1044 FILLER_103_776
*1045 FILLER_103_780
*1046 FILLER_103_783
*1047 FILLER_103_847
*1048 FILLER_103_851
*1049 FILLER_103_854
*1050 FILLER_103_918
*1051 FILLER_103_922
*1052 FILLER_103_925
*1053 FILLER_103_989
*1054 FILLER_103_993
*1055 FILLER_103_996
*1056 FILLER_104_101
*1057 FILLER_104_1024
*1058 FILLER_104_1028
*1059 FILLER_104_1031
*1060 FILLER_104_1039
*1061 FILLER_104_1043
*1062 FILLER_104_105
*1063 FILLER_104_108
*1064 FILLER_104_17
*1065 FILLER_104_172
*1066 FILLER_104_176
*1067 FILLER_104_179
*1068 FILLER_104_2
*1069 FILLER_104_21
*1070 FILLER_104_243
*1071 FILLER_104_247
*1072 FILLER_104_250
*1073 FILLER_104_29
*1074 FILLER_104_314
*1075 FILLER_104_318
*1076 FILLER_104_321
*1077 FILLER_104_33
*1078 FILLER_104_37
*1079 FILLER_104_385
*1080 FILLER_104_389
*1081 FILLER_104_392
*1082 FILLER_104_456
*1083 FILLER_104_460
*1084 FILLER_104_463
*1085 FILLER_104_527
*1086 FILLER_104_531
*1087 FILLER_104_534
*1088 FILLER_104_598
*1089 FILLER_104_602
*1090 FILLER_104_605
*1091 FILLER_104_669
*1092 FILLER_104_673
*1093 FILLER_104_676
*1094 FILLER_104_740
*1095 FILLER_104_744
*1096 FILLER_104_747
*1097 FILLER_104_811
*1098 FILLER_104_815
*1099 FILLER_104_818
*1100 FILLER_104_882
*1101 FILLER_104_886
*1102 FILLER_104_889
*1103 FILLER_104_953
*1104 FILLER_104_957
*1105 FILLER_104_960
*1106 FILLER_105_1028
*1107 FILLER_105_1044
*1108 FILLER_105_137
*1109 FILLER_105_141
*1110 FILLER_105_144
*1111 FILLER_105_2
*1112 FILLER_105_208
*1113 FILLER_105_212
*1114 FILLER_105_215
*1115 FILLER_105_279
*1116 FILLER_105_283
*1117 FILLER_105_286
*1118 FILLER_105_350
*1119 FILLER_105_354
*1120 FILLER_105_357
*1121 FILLER_105_421
*1122 FILLER_105_425
*1123 FILLER_105_428
*1124 FILLER_105_492
*1125 FILLER_105_496
*1126 FILLER_105_499
*1127 FILLER_105_563
*1128 FILLER_105_567
*1129 FILLER_105_570
*1130 FILLER_105_634
*1131 FILLER_105_638
*1132 FILLER_105_641
*1133 FILLER_105_66
*1134 FILLER_105_70
*1135 FILLER_105_705
*1136 FILLER_105_709
*1137 FILLER_105_712
*1138 FILLER_105_73
*1139 FILLER_105_776
*1140 FILLER_105_780
*1141 FILLER_105_783
*1142 FILLER_105_847
*1143 FILLER_105_851
*1144 FILLER_105_854
*1145 FILLER_105_918
*1146 FILLER_105_922
*1147 FILLER_105_925
*1148 FILLER_105_989
*1149 FILLER_105_993
*1150 FILLER_105_996
*1151 FILLER_106_101
*1152 FILLER_106_1024
*1153 FILLER_106_1028
*1154 FILLER_106_1031
*1155 FILLER_106_1039
*1156 FILLER_106_1043
*1157 FILLER_106_105
*1158 FILLER_106_108
*1159 FILLER_106_172
*1160 FILLER_106_176
*1161 FILLER_106_179
*1162 FILLER_106_2
*1163 FILLER_106_243
*1164 FILLER_106_247
*1165 FILLER_106_250
*1166 FILLER_106_314
*1167 FILLER_106_318
*1168 FILLER_106_321
*1169 FILLER_106_34
*1170 FILLER_106_37
*1171 FILLER_106_385
*1172 FILLER_106_389
*1173 FILLER_106_392
*1174 FILLER_106_456
*1175 FILLER_106_460
*1176 FILLER_106_463
*1177 FILLER_106_527
*1178 FILLER_106_531
*1179 FILLER_106_534
*1180 FILLER_106_598
*1181 FILLER_106_602
*1182 FILLER_106_605
*1183 FILLER_106_669
*1184 FILLER_106_673
*1185 FILLER_106_676
*1186 FILLER_106_740
*1187 FILLER_106_744
*1188 FILLER_106_747
*1189 FILLER_106_811
*1190 FILLER_106_815
*1191 FILLER_106_818
*1192 FILLER_106_882
*1193 FILLER_106_886
*1194 FILLER_106_889
*1195 FILLER_106_953
*1196 FILLER_106_957
*1197 FILLER_106_960
*1198 FILLER_107_1028
*1199 FILLER_107_1044
*1200 FILLER_107_137
*1201 FILLER_107_141
*1202 FILLER_107_144
*1203 FILLER_107_2
*1204 FILLER_107_208
*1205 FILLER_107_212
*1206 FILLER_107_215
*1207 FILLER_107_279
*1208 FILLER_107_283
*1209 FILLER_107_286
*1210 FILLER_107_350
*1211 FILLER_107_354
*1212 FILLER_107_357
*1213 FILLER_107_421
*1214 FILLER_107_425
*1215 FILLER_107_428
*1216 FILLER_107_492
*1217 FILLER_107_496
*1218 FILLER_107_499
*1219 FILLER_107_563
*1220 FILLER_107_567
*1221 FILLER_107_570
*1222 FILLER_107_634
*1223 FILLER_107_638
*1224 FILLER_107_641
*1225 FILLER_107_66
*1226 FILLER_107_70
*1227 FILLER_107_705
*1228 FILLER_107_709
*1229 FILLER_107_712
*1230 FILLER_107_73
*1231 FILLER_107_776
*1232 FILLER_107_780
*1233 FILLER_107_783
*1234 FILLER_107_847
*1235 FILLER_107_851
*1236 FILLER_107_854
*1237 FILLER_107_918
*1238 FILLER_107_922
*1239 FILLER_107_925
*1240 FILLER_107_989
*1241 FILLER_107_993
*1242 FILLER_107_996
*1243 FILLER_108_101
*1244 FILLER_108_1024
*1245 FILLER_108_1028
*1246 FILLER_108_1031
*1247 FILLER_108_1039
*1248 FILLER_108_1044
*1249 FILLER_108_105
*1250 FILLER_108_108
*1251 FILLER_108_172
*1252 FILLER_108_176
*1253 FILLER_108_179
*1254 FILLER_108_2
*1255 FILLER_108_243
*1256 FILLER_108_247
*1257 FILLER_108_250
*1258 FILLER_108_314
*1259 FILLER_108_318
*1260 FILLER_108_321
*1261 FILLER_108_34
*1262 FILLER_108_37
*1263 FILLER_108_385
*1264 FILLER_108_389
*1265 FILLER_108_392
*1266 FILLER_108_456
*1267 FILLER_108_460
*1268 FILLER_108_463
*1269 FILLER_108_527
*1270 FILLER_108_531
*1271 FILLER_108_534
*1272 FILLER_108_598
*1273 FILLER_108_602
*1274 FILLER_108_605
*1275 FILLER_108_669
*1276 FILLER_108_673
*1277 FILLER_108_676
*1278 FILLER_108_740
*1279 FILLER_108_744
*1280 FILLER_108_747
*1281 FILLER_108_811
*1282 FILLER_108_815
*1283 FILLER_108_818
*1284 FILLER_108_882
*1285 FILLER_108_886
*1286 FILLER_108_889
*1287 FILLER_108_953
*1288 FILLER_108_957
*1289 FILLER_108_960
*1290 FILLER_109_1028
*1291 FILLER_109_1044
*1292 FILLER_109_137
*1293 FILLER_109_141
*1294 FILLER_109_144
*1295 FILLER_109_2
*1296 FILLER_109_208
*1297 FILLER_109_212
*1298 FILLER_109_215
*1299 FILLER_109_279
*1300 FILLER_109_283
*1301 FILLER_109_286
*1302 FILLER_109_350
*1303 FILLER_109_354
*1304 FILLER_109_357
*1305 FILLER_109_421
*1306 FILLER_109_425
*1307 FILLER_109_428
*1308 FILLER_109_492
*1309 FILLER_109_496
*1310 FILLER_109_499
*1311 FILLER_109_563
*1312 FILLER_109_567
*1313 FILLER_109_570
*1314 FILLER_109_634
*1315 FILLER_109_638
*1316 FILLER_109_641
*1317 FILLER_109_66
*1318 FILLER_109_70
*1319 FILLER_109_705
*1320 FILLER_109_709
*1321 FILLER_109_712
*1322 FILLER_109_73
*1323 FILLER_109_776
*1324 FILLER_109_780
*1325 FILLER_109_783
*1326 FILLER_109_847
*1327 FILLER_109_851
*1328 FILLER_109_854
*1329 FILLER_109_918
*1330 FILLER_109_922
*1331 FILLER_109_925
*1332 FILLER_109_989
*1333 FILLER_109_993
*1334 FILLER_109_996
*1335 FILLER_10_101
*1336 FILLER_10_1024
*1337 FILLER_10_1028
*1338 FILLER_10_1031
*1339 FILLER_10_1039
*1340 FILLER_10_1043
*1341 FILLER_10_105
*1342 FILLER_10_108
*1343 FILLER_10_172
*1344 FILLER_10_176
*1345 FILLER_10_179
*1346 FILLER_10_2
*1347 FILLER_10_23
*1348 FILLER_10_243
*1349 FILLER_10_247
*1350 FILLER_10_250
*1351 FILLER_10_31
*1352 FILLER_10_314
*1353 FILLER_10_318
*1354 FILLER_10_321
*1355 FILLER_10_37
*1356 FILLER_10_385
*1357 FILLER_10_389
*1358 FILLER_10_392
*1359 FILLER_10_456
*1360 FILLER_10_460
*1361 FILLER_10_463
*1362 FILLER_10_527
*1363 FILLER_10_531
*1364 FILLER_10_534
*1365 FILLER_10_598
*1366 FILLER_10_602
*1367 FILLER_10_605
*1368 FILLER_10_669
*1369 FILLER_10_673
*1370 FILLER_10_676
*1371 FILLER_10_7
*1372 FILLER_10_740
*1373 FILLER_10_744
*1374 FILLER_10_747
*1375 FILLER_10_811
*1376 FILLER_10_815
*1377 FILLER_10_818
*1378 FILLER_10_882
*1379 FILLER_10_886
*1380 FILLER_10_889
*1381 FILLER_10_953
*1382 FILLER_10_957
*1383 FILLER_10_960
*1384 FILLER_110_101
*1385 FILLER_110_1024
*1386 FILLER_110_1028
*1387 FILLER_110_1031
*1388 FILLER_110_1039
*1389 FILLER_110_1043
*1390 FILLER_110_105
*1391 FILLER_110_108
*1392 FILLER_110_172
*1393 FILLER_110_176
*1394 FILLER_110_179
*1395 FILLER_110_2
*1396 FILLER_110_21
*1397 FILLER_110_243
*1398 FILLER_110_247
*1399 FILLER_110_250
*1400 FILLER_110_29
*1401 FILLER_110_314
*1402 FILLER_110_318
*1403 FILLER_110_321
*1404 FILLER_110_33
*1405 FILLER_110_37
*1406 FILLER_110_385
*1407 FILLER_110_389
*1408 FILLER_110_392
*1409 FILLER_110_456
*1410 FILLER_110_460
*1411 FILLER_110_463
*1412 FILLER_110_5
*1413 FILLER_110_527
*1414 FILLER_110_531
*1415 FILLER_110_534
*1416 FILLER_110_598
*1417 FILLER_110_602
*1418 FILLER_110_605
*1419 FILLER_110_669
*1420 FILLER_110_673
*1421 FILLER_110_676
*1422 FILLER_110_740
*1423 FILLER_110_744
*1424 FILLER_110_747
*1425 FILLER_110_811
*1426 FILLER_110_815
*1427 FILLER_110_818
*1428 FILLER_110_882
*1429 FILLER_110_886
*1430 FILLER_110_889
*1431 FILLER_110_953
*1432 FILLER_110_957
*1433 FILLER_110_960
*1434 FILLER_111_1028
*1435 FILLER_111_1044
*1436 FILLER_111_137
*1437 FILLER_111_141
*1438 FILLER_111_144
*1439 FILLER_111_2
*1440 FILLER_111_208
*1441 FILLER_111_212
*1442 FILLER_111_215
*1443 FILLER_111_279
*1444 FILLER_111_28
*1445 FILLER_111_283
*1446 FILLER_111_286
*1447 FILLER_111_350
*1448 FILLER_111_354
*1449 FILLER_111_357
*1450 FILLER_111_421
*1451 FILLER_111_425
*1452 FILLER_111_428
*1453 FILLER_111_492
*1454 FILLER_111_496
*1455 FILLER_111_499
*1456 FILLER_111_563
*1457 FILLER_111_567
*1458 FILLER_111_570
*1459 FILLER_111_60
*1460 FILLER_111_634
*1461 FILLER_111_638
*1462 FILLER_111_641
*1463 FILLER_111_68
*1464 FILLER_111_70
*1465 FILLER_111_705
*1466 FILLER_111_709
*1467 FILLER_111_712
*1468 FILLER_111_73
*1469 FILLER_111_776
*1470 FILLER_111_780
*1471 FILLER_111_783
*1472 FILLER_111_847
*1473 FILLER_111_851
*1474 FILLER_111_854
*1475 FILLER_111_918
*1476 FILLER_111_922
*1477 FILLER_111_925
*1478 FILLER_111_989
*1479 FILLER_111_993
*1480 FILLER_111_996
*1481 FILLER_112_101
*1482 FILLER_112_1024
*1483 FILLER_112_1028
*1484 FILLER_112_1031
*1485 FILLER_112_1039
*1486 FILLER_112_1044
*1487 FILLER_112_105
*1488 FILLER_112_108
*1489 FILLER_112_172
*1490 FILLER_112_176
*1491 FILLER_112_179
*1492 FILLER_112_2
*1493 FILLER_112_23
*1494 FILLER_112_243
*1495 FILLER_112_247
*1496 FILLER_112_250
*1497 FILLER_112_31
*1498 FILLER_112_314
*1499 FILLER_112_318
*1500 FILLER_112_321
*1501 FILLER_112_37
*1502 FILLER_112_385
*1503 FILLER_112_389
*1504 FILLER_112_392
*1505 FILLER_112_456
*1506 FILLER_112_460
*1507 FILLER_112_463
*1508 FILLER_112_527
*1509 FILLER_112_531
*1510 FILLER_112_534
*1511 FILLER_112_598
*1512 FILLER_112_602
*1513 FILLER_112_605
*1514 FILLER_112_669
*1515 FILLER_112_673
*1516 FILLER_112_676
*1517 FILLER_112_7
*1518 FILLER_112_740
*1519 FILLER_112_744
*1520 FILLER_112_747
*1521 FILLER_112_811
*1522 FILLER_112_815
*1523 FILLER_112_818
*1524 FILLER_112_882
*1525 FILLER_112_886
*1526 FILLER_112_889
*1527 FILLER_112_953
*1528 FILLER_112_957
*1529 FILLER_112_960
*1530 FILLER_113_1028
*1531 FILLER_113_1044
*1532 FILLER_113_137
*1533 FILLER_113_141
*1534 FILLER_113_144
*1535 FILLER_113_2
*1536 FILLER_113_208
*1537 FILLER_113_212
*1538 FILLER_113_215
*1539 FILLER_113_279
*1540 FILLER_113_283
*1541 FILLER_113_286
*1542 FILLER_113_350
*1543 FILLER_113_354
*1544 FILLER_113_357
*1545 FILLER_113_421
*1546 FILLER_113_425
*1547 FILLER_113_428
*1548 FILLER_113_492
*1549 FILLER_113_496
*1550 FILLER_113_499
*1551 FILLER_113_563
*1552 FILLER_113_567
*1553 FILLER_113_570
*1554 FILLER_113_634
*1555 FILLER_113_638
*1556 FILLER_113_641
*1557 FILLER_113_66
*1558 FILLER_113_70
*1559 FILLER_113_705
*1560 FILLER_113_709
*1561 FILLER_113_712
*1562 FILLER_113_73
*1563 FILLER_113_776
*1564 FILLER_113_780
*1565 FILLER_113_783
*1566 FILLER_113_847
*1567 FILLER_113_851
*1568 FILLER_113_854
*1569 FILLER_113_918
*1570 FILLER_113_922
*1571 FILLER_113_925
*1572 FILLER_113_989
*1573 FILLER_113_993
*1574 FILLER_113_996
*1575 FILLER_114_101
*1576 FILLER_114_1024
*1577 FILLER_114_1028
*1578 FILLER_114_1031
*1579 FILLER_114_1039
*1580 FILLER_114_1043
*1581 FILLER_114_105
*1582 FILLER_114_108
*1583 FILLER_114_172
*1584 FILLER_114_176
*1585 FILLER_114_179
*1586 FILLER_114_2
*1587 FILLER_114_23