*SPEF "ieee 1481-1999"
*DESIGN "tiny_user_project"
*DATE "11:11:11 Fri 11 11, 1111"
*VENDOR "OpenRCX"
*PROGRAM "Parallel Extraction"
*VERSION "1.0"
*DESIGN_FLOW "NAME_SCOPE LOCAL" "PIN_CAP NONE"
*DIVIDER /
*DELIMITER :
*BUS_DELIMITER []
*T_UNIT 1 NS
*C_UNIT 1 PF
*R_UNIT 1 OHM
*L_UNIT 1 HENRY

*NAME_MAP
*1 io_in[0]
*2 io_in[10]
*3 io_in[11]
*4 io_in[12]
*5 io_in[13]
*6 io_in[14]
*7 io_in[15]
*8 io_in[16]
*9 io_in[17]
*10 io_in[18]
*11 io_in[19]
*12 io_in[1]
*13 io_in[20]
*14 io_in[21]
*15 io_in[22]
*16 io_in[23]
*17 io_in[24]
*18 io_in[25]
*19 io_in[26]
*20 io_in[27]
*21 io_in[28]
*22 io_in[29]
*23 io_in[2]
*24 io_in[30]
*25 io_in[31]
*26 io_in[32]
*27 io_in[33]
*28 io_in[34]
*29 io_in[35]
*30 io_in[36]
*31 io_in[37]
*32 io_in[3]
*33 io_in[4]
*34 io_in[5]
*35 io_in[6]
*36 io_in[7]
*37 io_in[8]
*38 io_in[9]
*39 net11
*40 net21
*41 net22
*42 net23
*43 net24
*44 net25
*45 net26
*46 net27
*47 net28
*48 net29
*49 net30
*50 net12
*51 net31
*52 net32
*53 net33
*54 net34
*55 net35
*56 net36
*57 net37
*58 net38
*59 net39
*60 net40
*61 net13
*62 net41
*63 net42
*64 net43
*65 net44
*66 net45
*67 net46
*68 net47
*69 net48
*70 net14
*71 net15
*72 net16
*73 net17
*74 net18
*75 net19
*76 net20
*77 net49
*78 net59
*79 net60
*80 net61
*81 net62
*82 net63
*83 net64
*84 io_out[16]
*85 io_out[17]
*86 net65
*87 net66
*88 net50
*89 net67
*90 net68
*91 net69
*92 net70
*93 net71
*94 net72
*95 net73
*96 net74
*97 net75
*98 net76
*99 net51
*100 net77
*101 net78
*102 net79
*103 net80
*104 net81
*105 net82
*106 net83
*107 net84
*108 net52
*109 net53
*110 net54
*111 net55
*112 net56
*113 net57
*114 net58
*115 la_data_in[0]
*116 la_data_in[10]
*117 la_data_in[11]
*118 la_data_in[12]
*119 la_data_in[13]
*120 la_data_in[14]
*121 la_data_in[15]
*122 la_data_in[16]
*123 la_data_in[17]
*124 la_data_in[18]
*125 la_data_in[19]
*126 la_data_in[1]
*127 la_data_in[20]
*128 la_data_in[21]
*129 la_data_in[22]
*130 la_data_in[23]
*131 la_data_in[24]
*132 la_data_in[25]
*133 la_data_in[26]
*134 la_data_in[27]
*135 la_data_in[28]
*136 la_data_in[29]
*137 la_data_in[2]
*138 la_data_in[30]
*139 la_data_in[31]
*140 la_data_in[32]
*141 la_data_in[33]
*142 la_data_in[34]
*143 la_data_in[35]
*144 la_data_in[36]
*145 la_data_in[37]
*146 la_data_in[38]
*147 la_data_in[39]
*148 la_data_in[3]
*149 la_data_in[40]
*150 la_data_in[41]
*151 la_data_in[42]
*152 la_data_in[43]
*153 la_data_in[44]
*154 la_data_in[45]
*155 la_data_in[46]
*156 la_data_in[47]
*157 la_data_in[48]
*158 la_data_in[49]
*159 la_data_in[4]
*160 la_data_in[50]
*161 la_data_in[51]
*162 la_data_in[52]
*163 la_data_in[53]
*164 la_data_in[54]
*165 la_data_in[55]
*166 la_data_in[56]
*167 la_data_in[57]
*168 la_data_in[58]
*169 la_data_in[59]
*170 la_data_in[5]
*171 la_data_in[60]
*172 la_data_in[61]
*173 la_data_in[62]
*174 la_data_in[63]
*175 la_data_in[6]
*176 la_data_in[7]
*177 la_data_in[8]
*178 la_data_in[9]
*179 net85
*180 net95
*181 net96
*182 net97
*183 net98
*184 net99
*185 net100
*186 net101
*187 net102
*188 net103
*189 net104
*190 net86
*191 net105
*192 net106
*193 net107
*194 net108
*195 net109
*196 net110
*197 net111
*198 net112
*199 net113
*200 net114
*201 net87
*202 net115
*203 net116
*204 net117
*205 net118
*206 net119
*207 net120
*208 net121
*209 net122
*210 net123
*211 net124
*212 net88
*213 net125
*214 net126
*215 net127
*216 net128
*217 net129
*218 net130
*219 net131
*220 net132
*221 net133
*222 net134
*223 net89
*224 net135
*225 net136
*226 net137
*227 net138
*228 net139
*229 net140
*230 net141
*231 net142
*232 net143
*233 net144
*234 net90
*235 net145
*236 net146
*237 net147
*238 net148
*239 net91
*240 net92
*241 net93
*242 net94
*243 la_oenb[0]
*244 la_oenb[10]
*245 la_oenb[11]
*246 la_oenb[12]
*247 la_oenb[13]
*248 la_oenb[14]
*249 la_oenb[15]
*250 la_oenb[16]
*251 la_oenb[17]
*252 la_oenb[18]
*253 la_oenb[19]
*254 la_oenb[1]
*255 la_oenb[20]
*256 la_oenb[21]
*257 la_oenb[22]
*258 la_oenb[23]
*259 la_oenb[24]
*260 la_oenb[25]
*261 la_oenb[26]
*262 la_oenb[27]
*263 la_oenb[28]
*264 la_oenb[29]
*265 la_oenb[2]
*266 la_oenb[30]
*267 la_oenb[31]
*268 la_oenb[32]
*269 la_oenb[33]
*270 la_oenb[34]
*271 la_oenb[35]
*272 la_oenb[36]
*273 la_oenb[37]
*274 la_oenb[38]
*275 la_oenb[39]
*276 la_oenb[3]
*277 la_oenb[40]
*278 la_oenb[41]
*279 la_oenb[42]
*280 la_oenb[43]
*281 la_oenb[44]
*282 la_oenb[45]
*283 la_oenb[46]
*284 la_oenb[47]
*285 la_oenb[48]
*286 la_oenb[49]
*287 la_oenb[4]
*288 la_oenb[50]
*289 la_oenb[51]
*290 la_oenb[52]
*291 la_oenb[53]
*292 la_oenb[54]
*293 la_oenb[55]
*294 la_oenb[56]
*295 la_oenb[57]
*296 la_oenb[58]
*297 la_oenb[59]
*298 la_oenb[5]
*299 la_oenb[60]
*300 la_oenb[61]
*301 la_oenb[62]
*302 la_oenb[63]
*303 la_oenb[6]
*304 la_oenb[7]
*305 la_oenb[8]
*306 la_oenb[9]
*307 user_clock2
*308 net149
*309 net150
*310 net151
*313 wb_clk_i
*314 wb_rst_i
*315 net152
*316 wbs_adr_i[0]
*317 wbs_adr_i[10]
*318 wbs_adr_i[11]
*319 wbs_adr_i[12]
*320 wbs_adr_i[13]
*321 wbs_adr_i[14]
*322 wbs_adr_i[15]
*323 wbs_adr_i[16]
*324 wbs_adr_i[17]
*325 wbs_adr_i[18]
*326 wbs_adr_i[19]
*327 wbs_adr_i[1]
*328 wbs_adr_i[20]
*329 wbs_adr_i[21]
*330 wbs_adr_i[22]
*331 wbs_adr_i[23]
*332 wbs_adr_i[24]
*333 wbs_adr_i[25]
*334 wbs_adr_i[26]
*335 wbs_adr_i[27]
*336 wbs_adr_i[28]
*337 wbs_adr_i[29]
*338 wbs_adr_i[2]
*339 wbs_adr_i[30]
*340 wbs_adr_i[31]
*341 wbs_adr_i[3]
*342 wbs_adr_i[4]
*343 wbs_adr_i[5]
*344 wbs_adr_i[6]
*345 wbs_adr_i[7]
*346 wbs_adr_i[8]
*347 wbs_adr_i[9]
*348 wbs_cyc_i
*349 wbs_dat_i[0]
*350 wbs_dat_i[10]
*351 wbs_dat_i[11]
*352 wbs_dat_i[12]
*353 wbs_dat_i[13]
*354 wbs_dat_i[14]
*355 wbs_dat_i[15]
*356 wbs_dat_i[16]
*357 wbs_dat_i[17]
*358 wbs_dat_i[18]
*359 wbs_dat_i[19]
*360 wbs_dat_i[1]
*361 wbs_dat_i[20]
*362 wbs_dat_i[21]
*363 wbs_dat_i[22]
*364 wbs_dat_i[23]
*365 wbs_dat_i[24]
*366 wbs_dat_i[25]
*367 wbs_dat_i[26]
*368 wbs_dat_i[27]
*369 wbs_dat_i[28]
*370 wbs_dat_i[29]
*371 wbs_dat_i[2]
*372 wbs_dat_i[30]
*373 wbs_dat_i[31]
*374 wbs_dat_i[3]
*375 wbs_dat_i[4]
*376 wbs_dat_i[5]
*377 wbs_dat_i[6]
*378 wbs_dat_i[7]
*379 wbs_dat_i[8]
*380 wbs_dat_i[9]
*381 net153
*382 net163
*383 net164
*384 net165
*385 net166
*386 net167
*387 net168
*388 net169
*389 net170
*390 net171
*391 net172
*392 net154
*393 net173
*394 net174
*395 net175
*396 net176
*397 net177
*398 net178
*399 net179
*400 net180
*401 net181
*402 net182
*403 net155
*404 net183
*405 net184
*406 net156
*407 net157
*408 net158
*409 net159
*410 net160
*411 net161
*412 net162
*413 wbs_sel_i[0]
*414 wbs_sel_i[1]
*415 wbs_sel_i[2]
*416 wbs_sel_i[3]
*417 wbs_stb_i
*418 wbs_we_i
*419 _000_
*420 _001_
*421 _002_
*422 _003_
*423 _004_
*424 _005_
*425 _006_
*426 _007_
*427 _008_
*428 _009_
*429 _010_
*430 _011_
*431 _012_
*432 _013_
*433 _014_
*434 _015_
*435 _016_
*436 _017_
*437 _018_
*438 _019_
*439 _020_
*440 _021_
*441 _022_
*442 _023_
*443 _024_
*444 _025_
*445 _026_
*446 _027_
*447 _028_
*448 _029_
*449 _030_
*450 _031_
*451 _032_
*452 _033_
*453 _034_
*454 _035_
*455 _036_
*456 _037_
*457 _038_
*458 _039_
*459 _040_
*460 _041_
*461 _042_
*462 _043_
*463 _044_
*464 mod\.pdm_core\.accumulator\[0\]
*465 mod\.pdm_core\.accumulator\[1\]
*466 mod\.pdm_core\.accumulator\[2\]
*467 mod\.pdm_core\.accumulator\[3\]
*468 mod\.pdm_core\.accumulator\[4\]
*469 mod\.pdm_core\.input_reg\[0\]
*470 mod\.pdm_core\.input_reg\[1\]
*471 mod\.pdm_core\.input_reg\[2\]
*472 mod\.pdm_core\.input_reg\[3\]
*473 mod\.pdm_core\.input_reg\[4\]
*474 mod\.pdm_core\.sum\[0\]
*475 mod\.pdm_core\.sum\[1\]
*476 mod\.pdm_core\.sum\[2\]
*477 mod\.pdm_core\.sum\[3\]
*478 mod\.pdm_core\.sum\[4\]
*479 net1
*480 net10
*481 net2
*482 net3
*483 net4
*484 net5
*485 net6
*486 net7
*487 net8
*488 net9
*489 ANTENNA__046__I
*490 ANTENNA__047__I0
*491 ANTENNA__047__I1
*492 ANTENNA__047__S
*493 ANTENNA__049__I0
*494 ANTENNA__049__I1
*495 ANTENNA__049__S
*496 ANTENNA__052__I0
*497 ANTENNA__052__I1
*498 ANTENNA__052__S
*499 ANTENNA__054__I0
*500 ANTENNA__054__I1
*501 ANTENNA__054__S
*502 ANTENNA__056__I0
*503 ANTENNA__056__I1
*504 ANTENNA__056__S
*505 ANTENNA__058__A1
*506 ANTENNA__059__A1
*507 ANTENNA__059__A2
*508 ANTENNA__060__A1
*509 ANTENNA__061__A1
*510 ANTENNA__062__A1
*511 ANTENNA__062__B
*512 ANTENNA__063__A1
*513 ANTENNA__063__A2
*514 ANTENNA__064__A2
*515 ANTENNA__065__A1
*516 ANTENNA__065__A2
*517 ANTENNA__065__A3
*518 ANTENNA__066__A1
*519 ANTENNA__066__B1
*520 ANTENNA__066__B2
*521 ANTENNA__068__A1
*522 ANTENNA__069__A1
*523 ANTENNA__070__A1
*524 ANTENNA__071__B
*525 ANTENNA__073__A1
*526 ANTENNA__074__A1
*527 ANTENNA__074__A3
*528 ANTENNA__076__A1
*529 ANTENNA__076__A2
*530 ANTENNA__076__A3
*531 ANTENNA__077__I
*532 ANTENNA__078__A1
*533 ANTENNA__079__A1
*534 ANTENNA__083__A1
*535 ANTENNA__083__A2
*536 ANTENNA__085__I
*537 ANTENNA__086__I
*538 ANTENNA__087__I
*539 ANTENNA__088__I
*540 ANTENNA__089__I
*541 ANTENNA__090__I
*542 ANTENNA__091__I
*543 ANTENNA__092__I
*544 ANTENNA__093__I
*545 ANTENNA__094__I
*546 ANTENNA__095__I
*547 ANTENNA__096__I
*548 ANTENNA__097__CLK
*549 ANTENNA__098__CLK
*550 ANTENNA__099__CLK
*551 ANTENNA__100__CLK
*552 ANTENNA__101__CLK
*553 ANTENNA__102__CLK
*554 ANTENNA__103__CLK
*555 ANTENNA__104__CLK
*556 ANTENNA__105__CLK
*557 ANTENNA__106__CLK
*558 ANTENNA__106__RN
*559 ANTENNA_input1_I
*560 ANTENNA_input2_I
*561 ANTENNA_input3_I
*562 ANTENNA_input4_I
*563 ANTENNA_input5_I
*564 ANTENNA_input6_I
*565 ANTENNA_input7_I
*566 ANTENNA_input8_I
*567 ANTENNA_output10_I
*568 ANTENNA_output9_I
*569 FILLER_0_101
*570 FILLER_0_1011
*571 FILLER_0_1017
*572 FILLER_0_1025
*573 FILLER_0_1037
*574 FILLER_0_1039
*575 FILLER_0_1044
*576 FILLER_0_107
*577 FILLER_0_11
*578 FILLER_0_115
*579 FILLER_0_119
*580 FILLER_0_135
*581 FILLER_0_139
*582 FILLER_0_142
*583 FILLER_0_174
*584 FILLER_0_177
*585 FILLER_0_2
*586 FILLER_0_209
*587 FILLER_0_212
*588 FILLER_0_228
*589 FILLER_0_233
*590 FILLER_0_237
*591 FILLER_0_239
*592 FILLER_0_244
*593 FILLER_0_247
*594 FILLER_0_251
*595 FILLER_0_257
*596 FILLER_0_263
*597 FILLER_0_27
*598 FILLER_0_279
*599 FILLER_0_282
*600 FILLER_0_287
*601 FILLER_0_299
*602 FILLER_0_317
*603 FILLER_0_323
*604 FILLER_0_329
*605 FILLER_0_345
*606 FILLER_0_349
*607 FILLER_0_352
*608 FILLER_0_368
*609 FILLER_0_37
*610 FILLER_0_372
*611 FILLER_0_377
*612 FILLER_0_387
*613 FILLER_0_395
*614 FILLER_0_411
*615 FILLER_0_419
*616 FILLER_0_422
*617 FILLER_0_426
*618 FILLER_0_431
*619 FILLER_0_447
*620 FILLER_0_449
*621 FILLER_0_454
*622 FILLER_0_457
*623 FILLER_0_462
*624 FILLER_0_466
*625 FILLER_0_468
*626 FILLER_0_473
*627 FILLER_0_485
*628 FILLER_0_489
*629 FILLER_0_492
*630 FILLER_0_508
*631 FILLER_0_516
*632 FILLER_0_521
*633 FILLER_0_527
*634 FILLER_0_53
*635 FILLER_0_543
*636 FILLER_0_551
*637 FILLER_0_559
*638 FILLER_0_562
*639 FILLER_0_59
*640 FILLER_0_594
*641 FILLER_0_597
*642 FILLER_0_6
*643 FILLER_0_602
*644 FILLER_0_608
*645 FILLER_0_612
*646 FILLER_0_617
*647 FILLER_0_625
*648 FILLER_0_629
*649 FILLER_0_632
*650 FILLER_0_65
*651 FILLER_0_664
*652 FILLER_0_667
*653 FILLER_0_672
*654 FILLER_0_676
*655 FILLER_0_678
*656 FILLER_0_683
*657 FILLER_0_69
*658 FILLER_0_695
*659 FILLER_0_699
*660 FILLER_0_702
*661 FILLER_0_718
*662 FILLER_0_72
*663 FILLER_0_726
*664 FILLER_0_731
*665 FILLER_0_737
*666 FILLER_0_749
*667 FILLER_0_761
*668 FILLER_0_769
*669 FILLER_0_77
*670 FILLER_0_772
*671 FILLER_0_777
*672 FILLER_0_793
*673 FILLER_0_801
*674 FILLER_0_807
*675 FILLER_0_827
*676 FILLER_0_835
*677 FILLER_0_839
*678 FILLER_0_842
*679 FILLER_0_874
*680 FILLER_0_877
*681 FILLER_0_885
*682 FILLER_0_893
*683 FILLER_0_909
*684 FILLER_0_912
*685 FILLER_0_93
*686 FILLER_0_944
*687 FILLER_0_947
*688 FILLER_0_952
*689 FILLER_0_960
*690 FILLER_0_964
*691 FILLER_0_966
*692 FILLER_0_971
*693 FILLER_0_979
*694 FILLER_0_982
*695 FILLER_0_987
*696 FILLER_0_995
*697 FILLER_100_101
*698 FILLER_100_1024
*699 FILLER_100_1028
*700 FILLER_100_1031
*701 FILLER_100_1039
*702 FILLER_100_1043
*703 FILLER_100_105
*704 FILLER_100_108
*705 FILLER_100_172
*706 FILLER_100_176
*707 FILLER_100_179
*708 FILLER_100_2
*709 FILLER_100_243
*710 FILLER_100_247
*711 FILLER_100_250
*712 FILLER_100_314
*713 FILLER_100_318
*714 FILLER_100_321
*715 FILLER_100_34
*716 FILLER_100_37
*717 FILLER_100_385
*718 FILLER_100_389
*719 FILLER_100_392
*720 FILLER_100_456
*721 FILLER_100_460
*722 FILLER_100_463
*723 FILLER_100_527
*724 FILLER_100_531
*725 FILLER_100_534
*726 FILLER_100_598
*727 FILLER_100_602
*728 FILLER_100_605
*729 FILLER_100_669
*730 FILLER_100_673
*731 FILLER_100_676
*732 FILLER_100_740
*733 FILLER_100_744
*734 FILLER_100_747
*735 FILLER_100_811
*736 FILLER_100_815
*737 FILLER_100_818
*738 FILLER_100_882
*739 FILLER_100_886
*740 FILLER_100_889
*741 FILLER_100_953
*742 FILLER_100_957
*743 FILLER_100_960
*744 FILLER_101_1028
*745 FILLER_101_1036
*746 FILLER_101_1044
*747 FILLER_101_137
*748 FILLER_101_141
*749 FILLER_101_144
*750 FILLER_101_2
*751 FILLER_101_208
*752 FILLER_101_212
*753 FILLER_101_215
*754 FILLER_101_279
*755 FILLER_101_283
*756 FILLER_101_286
*757 FILLER_101_350
*758 FILLER_101_354
*759 FILLER_101_357
*760 FILLER_101_421
*761 FILLER_101_425
*762 FILLER_101_428
*763 FILLER_101_492
*764 FILLER_101_496
*765 FILLER_101_499
*766 FILLER_101_563
*767 FILLER_101_567
*768 FILLER_101_570
*769 FILLER_101_634
*770 FILLER_101_638
*771 FILLER_101_641
*772 FILLER_101_66
*773 FILLER_101_70
*774 FILLER_101_705
*775 FILLER_101_709
*776 FILLER_101_712
*777 FILLER_101_73
*778 FILLER_101_776
*779 FILLER_101_780
*780 FILLER_101_783
*781 FILLER_101_847
*782 FILLER_101_851
*783 FILLER_101_854
*784 FILLER_101_918
*785 FILLER_101_922
*786 FILLER_101_925
*787 FILLER_101_989
*788 FILLER_101_993
*789 FILLER_101_996
*790 FILLER_102_101
*791 FILLER_102_1024
*792 FILLER_102_1028
*793 FILLER_102_1031
*794 FILLER_102_1039
*795 FILLER_102_1043
*796 FILLER_102_105
*797 FILLER_102_108
*798 FILLER_102_13
*799 FILLER_102_172
*800 FILLER_102_176
*801 FILLER_102_179
*802 FILLER_102_2
*803 FILLER_102_243
*804 FILLER_102_247
*805 FILLER_102_250
*806 FILLER_102_29
*807 FILLER_102_314
*808 FILLER_102_318
*809 FILLER_102_321
*810 FILLER_102_33
*811 FILLER_102_37
*812 FILLER_102_385
*813 FILLER_102_389
*814 FILLER_102_392
*815 FILLER_102_456
*816 FILLER_102_460
*817 FILLER_102_463
*818 FILLER_102_527
*819 FILLER_102_531
*820 FILLER_102_534
*821 FILLER_102_598
*822 FILLER_102_602
*823 FILLER_102_605
*824 FILLER_102_669
*825 FILLER_102_673
*826 FILLER_102_676
*827 FILLER_102_7
*828 FILLER_102_740
*829 FILLER_102_744
*830 FILLER_102_747
*831 FILLER_102_811
*832 FILLER_102_815
*833 FILLER_102_818
*834 FILLER_102_882
*835 FILLER_102_886
*836 FILLER_102_889
*837 FILLER_102_953
*838 FILLER_102_957
*839 FILLER_102_960
*840 FILLER_103_1028
*841 FILLER_103_1036
*842 FILLER_103_1044
*843 FILLER_103_137
*844 FILLER_103_141
*845 FILLER_103_144
*846 FILLER_103_2
*847 FILLER_103_208
*848 FILLER_103_212
*849 FILLER_103_215
*850 FILLER_103_279
*851 FILLER_103_283
*852 FILLER_103_286
*853 FILLER_103_350
*854 FILLER_103_354
*855 FILLER_103_357
*856 FILLER_103_421
*857 FILLER_103_425
*858 FILLER_103_428
*859 FILLER_103_492
*860 FILLER_103_496
*861 FILLER_103_499
*862 FILLER_103_563
*863 FILLER_103_567
*864 FILLER_103_570
*865 FILLER_103_634
*866 FILLER_103_638
*867 FILLER_103_641
*868 FILLER_103_66
*869 FILLER_103_70
*870 FILLER_103_705
*871 FILLER_103_709
*872 FILLER_103_712
*873 FILLER_103_73
*874 FILLER_103_776
*875 FILLER_103_780
*876 FILLER_103_783
*877 FILLER_103_847
*878 FILLER_103_851
*879 FILLER_103_854
*880 FILLER_103_918
*881 FILLER_103_922
*882 FILLER_103_925
*883 FILLER_103_989
*884 FILLER_103_993
*885 FILLER_103_996
*886 FILLER_104_101
*887 FILLER_104_1024
*888 FILLER_104_1028
*889 FILLER_104_1031
*890 FILLER_104_1039
*891 FILLER_104_1043
*892 FILLER_104_105
*893 FILLER_104_108
*894 FILLER_104_172
*895 FILLER_104_176
*896 FILLER_104_179
*897 FILLER_104_2
*898 FILLER_104_23
*899 FILLER_104_243
*900 FILLER_104_247
*901 FILLER_104_250
*902 FILLER_104_31
*903 FILLER_104_314
*904 FILLER_104_318
*905 FILLER_104_321
*906 FILLER_104_37
*907 FILLER_104_385
*908 FILLER_104_389
*909 FILLER_104_392
*910 FILLER_104_456
*911 FILLER_104_460
*912 FILLER_104_463
*913 FILLER_104_527
*914 FILLER_104_531
*915 FILLER_104_534
*916 FILLER_104_598
*917 FILLER_104_602
*918 FILLER_104_605
*919 FILLER_104_669
*920 FILLER_104_673
*921 FILLER_104_676
*922 FILLER_104_7
*923 FILLER_104_740
*924 FILLER_104_744
*925 FILLER_104_747
*926 FILLER_104_811
*927 FILLER_104_815
*928 FILLER_104_818
*929 FILLER_104_882
*930 FILLER_104_886
*931 FILLER_104_889
*932 FILLER_104_953
*933 FILLER_104_957
*934 FILLER_104_960
*935 FILLER_105_1028
*936 FILLER_105_1044
*937 FILLER_105_137
*938 FILLER_105_141
*939 FILLER_105_144
*940 FILLER_105_2
*941 FILLER_105_208
*942 FILLER_105_212
*943 FILLER_105_215
*944 FILLER_105_279
*945 FILLER_105_283
*946 FILLER_105_286
*947 FILLER_105_350
*948 FILLER_105_354
*949 FILLER_105_357
*950 FILLER_105_421
*951 FILLER_105_425
*952 FILLER_105_428
*953 FILLER_105_492
*954 FILLER_105_496
*955 FILLER_105_499
*956 FILLER_105_563
*957 FILLER_105_567
*958 FILLER_105_570
*959 FILLER_105_634
*960 FILLER_105_638
*961 FILLER_105_641
*962 FILLER_105_66
*963 FILLER_105_70
*964 FILLER_105_705
*965 FILLER_105_709
*966 FILLER_105_712
*967 FILLER_105_73
*968 FILLER_105_776
*969 FILLER_105_780
*970 FILLER_105_783
*971 FILLER_105_847
*972 FILLER_105_851
*973 FILLER_105_854
*974 FILLER_105_918
*975 FILLER_105_922
*976 FILLER_105_925
*977 FILLER_105_989
*978 FILLER_105_993
*979 FILLER_105_996
*980 FILLER_106_101
*981 FILLER_106_1024
*982 FILLER_106_1028
*983 FILLER_106_1031
*984 FILLER_106_1039
*985 FILLER_106_1043
*986 FILLER_106_105
*987 FILLER_106_108
*988 FILLER_106_172
*989 FILLER_106_176
*990 FILLER_106_179
*991 FILLER_106_2
*992 FILLER_106_243
*993 FILLER_106_247
*994 FILLER_106_250
*995 FILLER_106_314
*996 FILLER_106_318
*997 FILLER_106_321
*998 FILLER_106_34
*999 FILLER_106_37
*1000 FILLER_106_385
*1001 FILLER_106_389
*1002 FILLER_106_392
*1003 FILLER_106_456
*1004 FILLER_106_460
*1005 FILLER_106_463
*1006 FILLER_106_527
*1007 FILLER_106_531
*1008 FILLER_106_534
*1009 FILLER_106_598
*1010 FILLER_106_602
*1011 FILLER_106_605
*1012 FILLER_106_669
*1013 FILLER_106_673
*1014 FILLER_106_676
*1015 FILLER_106_740
*1016 FILLER_106_744
*1017 FILLER_106_747
*1018 FILLER_106_811
*1019 FILLER_106_815
*1020 FILLER_106_818
*1021 FILLER_106_882
*1022 FILLER_106_886
*1023 FILLER_106_889
*1024 FILLER_106_953
*1025 FILLER_106_957
*1026 FILLER_106_960
*1027 FILLER_107_1028
*1028 FILLER_107_1044
*1029 FILLER_107_137
*1030 FILLER_107_141
*1031 FILLER_107_144
*1032 FILLER_107_2
*1033 FILLER_107_208
*1034 FILLER_107_212
*1035 FILLER_107_215
*1036 FILLER_107_279
*1037 FILLER_107_283
*1038 FILLER_107_286
*1039 FILLER_107_350
*1040 FILLER_107_354
*1041 FILLER_107_357
*1042 FILLER_107_421
*1043 FILLER_107_425
*1044 FILLER_107_428
*1045 FILLER_107_492
*1046 FILLER_107_496
*1047 FILLER_107_499
*1048 FILLER_107_563
*1049 FILLER_107_567
*1050 FILLER_107_570
*1051 FILLER_107_634
*1052 FILLER_107_638
*1053 FILLER_107_641
*1054 FILLER_107_66
*1055 FILLER_107_70
*1056 FILLER_107_705
*1057 FILLER_107_709
*1058 FILLER_107_712
*1059 FILLER_107_73
*1060 FILLER_107_776
*1061 FILLER_107_780
*1062 FILLER_107_783
*1063 FILLER_107_847
*1064 FILLER_107_851
*1065 FILLER_107_854
*1066 FILLER_107_918
*1067 FILLER_107_922
*1068 FILLER_107_925
*1069 FILLER_107_989
*1070 FILLER_107_993
*1071 FILLER_107_996
*1072 FILLER_108_101
*1073 FILLER_108_1024
*1074 FILLER_108_1028
*1075 FILLER_108_1031
*1076 FILLER_108_1039
*1077 FILLER_108_1044
*1078 FILLER_108_105
*1079 FILLER_108_108
*1080 FILLER_108_172
*1081 FILLER_108_176
*1082 FILLER_108_179
*1083 FILLER_108_2
*1084 FILLER_108_243
*1085 FILLER_108_247
*1086 FILLER_108_250
*1087 FILLER_108_314
*1088 FILLER_108_318
*1089 FILLER_108_321
*1090 FILLER_108_34
*1091 FILLER_108_37
*1092 FILLER_108_385
*1093 FILLER_108_389
*1094 FILLER_108_392
*1095 FILLER_108_456
*1096 FILLER_108_460
*1097 FILLER_108_463
*1098 FILLER_108_527
*1099 FILLER_108_531
*1100 FILLER_108_534
*1101 FILLER_108_598
*1102 FILLER_108_602
*1103 FILLER_108_605
*1104 FILLER_108_669
*1105 FILLER_108_673
*1106 FILLER_108_676
*1107 FILLER_108_740
*1108 FILLER_108_744
*1109 FILLER_108_747
*1110 FILLER_108_811
*1111 FILLER_108_815
*1112 FILLER_108_818
*1113 FILLER_108_882
*1114 FILLER_108_886
*1115 FILLER_108_889
*1116 FILLER_108_953
*1117 FILLER_108_957
*1118 FILLER_108_960
*1119 FILLER_109_1028
*1120 FILLER_109_1044
*1121 FILLER_109_137
*1122 FILLER_109_141
*1123 FILLER_109_144
*1124 FILLER_109_2
*1125 FILLER_109_208
*1126 FILLER_109_212
*1127 FILLER_109_215
*1128 FILLER_109_279
*1129 FILLER_109_283
*1130 FILLER_109_286
*1131 FILLER_109_350
*1132 FILLER_109_354
*1133 FILLER_109_357
*1134 FILLER_109_421
*1135 FILLER_109_425
*1136 FILLER_109_428
*1137 FILLER_109_492
*1138 FILLER_109_496
*1139 FILLER_109_499
*1140 FILLER_109_563
*1141 FILLER_109_567
*1142 FILLER_109_570
*1143 FILLER_109_634
*1144 FILLER_109_638
*1145 FILLER_109_641
*1146 FILLER_109_66
*1147 FILLER_109_70
*1148 FILLER_109_705
*1149 FILLER_109_709
*1150 FILLER_109_712
*1151 FILLER_109_73
*1152 FILLER_109_776
*1153 FILLER_109_780
*1154 FILLER_109_783
*1155 FILLER_109_847
*1156 FILLER_109_851
*1157 FILLER_109_854
*1158 FILLER_109_918
*1159 FILLER_109_922
*1160 FILLER_109_925
*1161 FILLER_109_989
*1162 FILLER_109_993
*1163 FILLER_109_996
*1164 FILLER_10_101
*1165 FILLER_10_1024
*1166 FILLER_10_1028
*1167 FILLER_10_1031
*1168 FILLER_10_1039
*1169 FILLER_10_1043
*1170 FILLER_10_105
*1171 FILLER_10_108
*1172 FILLER_10_172
*1173 FILLER_10_176
*1174 FILLER_10_179
*1175 FILLER_10_2
*1176 FILLER_10_23
*1177 FILLER_10_243
*1178 FILLER_10_247
*1179 FILLER_10_250
*1180 FILLER_10_31
*1181 FILLER_10_314
*1182 FILLER_10_318
*1183 FILLER_10_321
*1184 FILLER_10_37
*1185 FILLER_10_385
*1186 FILLER_10_389
*1187 FILLER_10_392
*1188 FILLER_10_456
*1189 FILLER_10_460
*1190 FILLER_10_463
*1191 FILLER_10_527
*1192 FILLER_10_531
*1193 FILLER_10_534
*1194 FILLER_10_598
*1195 FILLER_10_602
*1196 FILLER_10_605
*1197 FILLER_10_669
*1198 FILLER_10_673
*1199 FILLER_10_676
*1200 FILLER_10_7
*1201 FILLER_10_740
*1202 FILLER_10_744
*1203 FILLER_10_747
*1204 FILLER_10_811
*1205 FILLER_10_815
*1206 FILLER_10_818
*1207 FILLER_10_882
*1208 FILLER_10_886
*1209 FILLER_10_889
*1210 FILLER_10_953
*1211 FILLER_10_957
*1212 FILLER_10_960
*1213 FILLER_110_101
*1214 FILLER_110_1024
*1215 FILLER_110_1028
*1216 FILLER_110_1031
*1217 FILLER_110_1039
*1218 FILLER_110_1043
*1219 FILLER_110_105
*1220 FILLER_110_108
*1221 FILLER_110_172
*1222 FILLER_110_176
*1223 FILLER_110_179
*1224 FILLER_110_2
*1225 FILLER_110_21
*1226 FILLER_110_243
*1227 FILLER_110_247
*1228 FILLER_110_250
*1229 FILLER_110_29
*1230 FILLER_110_314
*1231 FILLER_110_318
*1232 FILLER_110_321
*1233 FILLER_110_33
*1234 FILLER_110_37
*1235 FILLER_110_385
*1236 FILLER_110_389
*1237 FILLER_110_392
*1238 FILLER_110_456
*1239 FILLER_110_460
*1240 FILLER_110_463
*1241 FILLER_110_5
*1242 FILLER_110_527
*1243 FILLER_110_531
*1244 FILLER_110_534
*1245 FILLER_110_598
*1246 FILLER_110_602
*1247 FILLER_110_605
*1248 FILLER_110_669
*1249 FILLER_110_673
*1250 FILLER_110_676
*1251 FILLER_110_740
*1252 FILLER_110_744
*1253 FILLER_110_747
*1254 FILLER_110_811
*1255 FILLER_110_815
*1256 FILLER_110_818
*1257 FILLER_110_882
*1258 FILLER_110_886
*1259 FILLER_110_889
*1260 FILLER_110_953
*1261 FILLER_110_957
*1262 FILLER_110_960
*1263 FILLER_111_1028
*1264 FILLER_111_1044
*1265 FILLER_111_137
*1266 FILLER_111_141
*1267 FILLER_111_144
*1268 FILLER_111_2
*1269 FILLER_111_208
*1270 FILLER_111_212
*1271 FILLER_111_215
*1272 FILLER_111_279
*1273 FILLER_111_283
*1274 FILLER_111_286
*1275 FILLER_111_350
*1276 FILLER_111_354
*1277 FILLER_111_357
*1278 FILLER_111_41
*1279 FILLER_111_421
*1280 FILLER_111_425
*1281 FILLER_111_428
*1282 FILLER_111_492
*1283 FILLER_111_496
*1284 FILLER_111_499
*1285 FILLER_111_563
*1286 FILLER_111_567
*1287 FILLER_111_57
*1288 FILLER_111_570
*1289 FILLER_111_634
*1290 FILLER_111_638
*1291 FILLER_111_641
*1292 FILLER_111_65
*1293 FILLER_111_69
*1294 FILLER_111_705
*1295 FILLER_111_709
*1296 FILLER_111_712
*1297 FILLER_111_73
*1298 FILLER_111_776
*1299 FILLER_111_780
*1300 FILLER_111_783
*1301 FILLER_111_847
*1302 FILLER_111_851
*1303 FILLER_111_854
*1304 FILLER_111_9
*1305 FILLER_111_918
*1306 FILLER_111_922
*1307 FILLER_111_925
*1308 FILLER_111_989
*1309 FILLER_111_993
*1310 FILLER_111_996
*1311 FILLER_112_101
*1312 FILLER_112_1024
*1313 FILLER_112_1028
*1314 FILLER_112_1031
*1315 FILLER_112_1039
*1316 FILLER_112_1044
*1317 FILLER_112_105
*1318 FILLER_112_108
*1319 FILLER_112_172
*1320 FILLER_112_176
*1321 FILLER_112_179
*1322 FILLER_112_2
*1323 FILLER_112_23
*1324 FILLER_112_243
*1325 FILLER_112_247
*1326 FILLER_112_250
*1327 FILLER_112_31
*1328 FILLER_112_314
*1329 FILLER_112_318
*1330 FILLER_112_321
*1331 FILLER_112_37
*1332 FILLER_112_385
*1333 FILLER_112_389
*1334 FILLER_112_392
*1335 FILLER_112_456
*1336 FILLER_112_460
*1337 FILLER_112_463
*1338 FILLER_112_527
*1339 FILLER_112_531
*1340 FILLER_112_534
*1341 FILLER_112_598
*1342 FILLER_112_602
*1343 FILLER_112_605
*1344 FILLER_112_669
*1345 FILLER_112_673
*1346 FILLER_112_676
*1347 FILLER_112_7
*1348 FILLER_112_740
*1349 FILLER_112_744
*1350 FILLER_112_747
*1351 FILLER_112_811
*1352 FILLER_112_815
*1353 FILLER_112_818
*1354 FILLER_112_882
*1355 FILLER_112_886
*1356 FILLER_112_889
*1357 FILLER_112_953
*1358 FILLER_112_957
*1359 FILLER_112_960
*1360 FILLER_113_1028
*1361 FILLER_113_1044
*1362 FILLER_113_137
*1363 FILLER_113_141
*1364 FILLER_113_144
*1365 FILLER_113_2
*1366 FILLER_113_208
*1367 FILLER_113_212
*1368 FILLER_113_215
*1369 FILLER_113_279
*1370 FILLER_113_283
*1371 FILLER_113_286
*1372 FILLER_113_350
*1373 FILLER_113_354
*1374 FILLER_113_357
*1375 FILLER_113_421
*1376 FILLER_113_425
*1377 FILLER_113_428
*1378 FILLER_113_492
*1379 FILLER_113_496
*1380 FILLER_113_499
*1381 FILLER_113_563
*1382 FILLER_113_567
*1383 FILLER_113_570
*1384 FILLER_113_634
*1385 FILLER_113_638
*1386 FILLER_113_641
*1387 FILLER_113_66
*1388 FILLER_113_70
*1389 FILLER_113_705
*1390 FILLER_113_709
*1391 FILLER_113_712
*1392 FILLER_113_73
*1393 FILLER_113_776
*1394 FILLER_113_780
*1395 FILLER_113_783
*1396 FILLER_113_847
*1397 FILLER_113_851
*1398 FILLER_113_854
*1399 FILLER_113_918
*1400 FILLER_113_922
*1401 FILLER_113_925
*1402 FILLER_113_989
*1403 FILLER_113_993
*1404 FILLER_113_996
*1405 FILLER_114_101
*1406 FILLER_114_1024
*1407 FILLER_114_1028
*1408 FILLER_114_1031
*1409 FILLER_114_1039
*1410 FILLER_114_1043
*1411 FILLER_114_105
*1412 FILLER_114_108
*1413 FILLER_114_172
*1414 FILLER_114_176
*1415 FILLER_114_179
*1416 FILLER_114_2
*1417 FILLER_114_23
*1418 FILLER_114_243
*1419 FILLER_114_247
*1420 FILLER_114_250
*1421 FILLER_114_31
*1422 FILLER_114_314
*1423 FILLER_114_318
*1424 FILLER_114_321
*1425 FILLER_114_37
*1426 FILLER_114_385
*1427 FILLER_114_389
*1428 FILLER_114_392
*1429 FILLER_114_456
*1430 FILLER_114_460
*1431 FILLER_114_463
*1432 FILLER_114_527
*1433 FILLER_114_531
*1434 FILLER_114_534
*1435 FILLER_114_598
*1436 FILLER_114_602
*1437 FILLER_114_605
*1438 FILLER_114_669
*1439 FILLER_114_673
*1440 FILLER_114_676
*1441 FILLER_114_7
*1442 FILLER_114_740
*1443 FILLER_114_744
*1444 FILLER_114_747
*1445 FILLER_114_811
*1446 FILLER_114_815
*1447 FILLER_114_818
*1448 FILLER_114_882
*1449 FILLER_114_886
*1450 FILLER_114_889
*1451 FILLER_114_953
*1452 FILLER_114_957
*1453 FILLER_114_960
*1454 FILLER_115_1028
*1455 FILLER_115_1044
*1456 FILLER_115_137
*1457 FILLER_115_141
*1458 FILLER_115_144
*1459 FILLER_115_2
*1460 FILLER_115_208
*1461 FILLER_115_212
*1462 FILLER_115_215
*1463 FILLER_115_279
*1464 FILLER_115_283
*1465 FILLER_115_286
*1466 FILLER_115_350
*1467 FILLER_115_354
*1468 FILLER_115_357
*1469 FILLER_115_421
*1470 FILLER_115_425
*1471 FILLER_115_428
*1472 FILLER_115_492
*1473 FILLER_115_496
*1474 FILLER_115_499
*1475 FILLER_115_563
*1476 FILLER_115_567
*1477 FILLER_115_570
*1478 FILLER_115_634
*1479 FILLER_115_638
*1480 FILLER_115_641
*1481 FILLER_115_66
*1482 FILLER_115_70
*1483 FILLER_115_705
*1484 FILLER_115_709
*1485 FILLER_115_712
*1486 FILLER_115_73
*1487 FILLER_115_776
*1488 FILLER_115_780
*1489 FILLER_115_783
*1490 FILLER_115_847
*1491 FILLER_115_851
*1492 FILLER_115_854
*1493 FILLER_115_918
*1494 FILLER_115_922
*1495 FILLER_115_925
*1496 FILLER_115_989
*1497 FILLER_115_993
*1498 FILLER_115_996
*1499 FILLER_116_101
*1500 FILLER_116_1024
*1501 FILLER_116_1028
*1502 FILLER_116_1031
*1503 FILLER_116_1039
*1504 FILLER_116_1043
*1505 FILLER_116_105
*1506 FILLER_116_108
*1507 FILLER_116_172
*1508 FILLER_116_176
*1509 FILLER_116_179
*1510 FILLER_116_2
*1511 FILLER_116_243
*1512 FILLER_116_247
*1513 FILLER_116_250
*1514 FILLER_116_314
*1515 FILLER_116_318
*1516 FILLER_116_321
*1517 FILLER_116_34
*1518 FILLER_116_37
*1519 FILLER_116_385
*1520 FILLER_116_389
*1521 FILLER_116_392
*1522 FILLER_116_456
*1523 FILLER_116_460
*1524 FILLER_116_463
*1525 FILLER_116_527
*1526 FILLER_116_531
*1527 FILLER_116_534
*1528 FILLER_116_598
*1529 FILLER_116_602
*1530 FILLER_116_605
*1531 FILLER_116_669
*1532 FILLER_116_673
*1533 FILLER_116_676
*1534 FILLER_116_740
*1535 FILLER_116_744
*1536 FILLER_116_747
*1537 FILLER_116_811
*1538 FILLER_116_815
*1539 FILLER_116_818
*1540 FILLER_116_882
*1541 FILLER_116_886
*1542 FILLER_116_889
*1543 FILLER_116_953
*1544 FILLER_116_957
*1545 FILLER_116_960
*1546 FILLER_117_1028
*1547 FILLER_117_1044
*1548 FILLER_117_137
*1549 FILLER_117_141
*1550 FILLER_117_144
*1551 FILLER_117_2
*1552 FILLER_117_208
*1553 FILLER_117_212
*1554 FILLER_117_215
*1555 FILLER_117_279
*1556 FILLER_117_283
*1557 FILLER_117_286
*1558 FILLER_117_350
*1559 FILLER_117_354
*1560 FILLER_117_357
*1561 FILLER_117_421
*1562 FILLER_117_425
*1563 FILLER_117_428
*1564 FILLER_117_492
*1565 FILLER_117_496
*1566 FILLER_117_499
*1567 FILLER_117_563
*1568 FILLER_117_567
*1569 FILLER_117_570
*1570 FILLER_117_634
*1571 FILLER_117_638
*1572 FILLER_117_641
*1573 FILLER_117_7
*1574 FILLER_117_705
*1575 FILLER_117_709
*1576 FILLER_117_712
*1577 FILLER_117_73
*1578 FILLER_117_776
*1579 FILLER_117_780
*1580 FILLER_117_783
*1581 FILLER_117_847
*1582 FILLER_117_851
*1583 FILLER_117_854
*1584 FILLER_117_918
*1585 FILLER_117_922
*1586 FILLER_117_925
*1587 FILLER_117_989
*1588 FILLER_117_993