*SPEF "ieee 1481-1999"
*DESIGN "tiny_user_project"
*DATE "11:11:11 Fri 11 11, 1111"
*VENDOR "OpenRCX"
*PROGRAM "Parallel Extraction"
*VERSION "1.0"
*DESIGN_FLOW "NAME_SCOPE LOCAL" "PIN_CAP NONE"
*DIVIDER /
*DELIMITER :
*BUS_DELIMITER []
*T_UNIT 1 NS
*C_UNIT 1 PF
*R_UNIT 1 OHM
*L_UNIT 1 HENRY

*NAME_MAP
*1 io_in[0]
*2 io_in[10]
*3 io_in[11]
*4 io_in[12]
*5 io_in[13]
*6 io_in[14]
*7 io_in[15]
*8 io_in[16]
*9 io_in[17]
*10 io_in[18]
*11 io_in[19]
*12 io_in[1]
*13 io_in[20]
*14 io_in[21]
*15 io_in[22]
*16 io_in[23]
*17 io_in[24]
*18 io_in[25]
*19 io_in[26]
*20 io_in[27]
*21 io_in[28]
*22 io_in[29]
*23 io_in[2]
*24 io_in[30]
*25 io_in[31]
*26 io_in[32]
*27 io_in[33]
*28 io_in[34]
*29 io_in[35]
*30 io_in[36]
*31 io_in[37]
*32 io_in[3]
*33 io_in[4]
*34 io_in[5]
*35 io_in[6]
*36 io_in[7]
*37 io_in[8]
*38 io_in[9]
*39 net113
*40 net123
*41 net124
*42 net125
*43 net126
*44 net127
*45 net128
*46 net129
*47 net130
*48 net131
*49 net132
*50 net114
*51 net133
*52 net134
*53 net135
*54 net136
*55 net137
*56 net138
*57 net139
*58 net140
*59 net141
*60 net142
*61 net115
*62 net143
*63 net144
*64 net145
*65 net146
*66 net147
*67 net148
*68 net149
*69 net150
*70 net116
*71 net117
*72 net118
*73 net119
*74 net120
*75 net121
*76 net122
*77 net84
*78 net94
*79 net95
*80 net96
*81 net97
*82 net98
*83 net99
*84 net100
*85 net101
*86 io_out[18]
*87 io_out[19]
*88 net85
*89 io_out[20]
*90 io_out[21]
*91 io_out[22]
*92 io_out[23]
*93 io_out[24]
*94 io_out[25]
*95 io_out[26]
*96 net102
*97 net103
*98 net104
*99 net86
*100 net105
*101 net106
*102 net107
*103 net108
*104 net109
*105 net110
*106 net111
*107 net112
*108 net87
*109 net88
*110 net89
*111 net90
*112 net91
*113 net92
*114 net93
*115 la_data_in[0]
*116 la_data_in[10]
*117 la_data_in[11]
*118 la_data_in[12]
*119 la_data_in[13]
*120 la_data_in[14]
*121 la_data_in[15]
*122 la_data_in[16]
*123 la_data_in[17]
*124 la_data_in[18]
*125 la_data_in[19]
*126 la_data_in[1]
*127 la_data_in[20]
*128 la_data_in[21]
*129 la_data_in[22]
*130 la_data_in[23]
*131 la_data_in[24]
*132 la_data_in[25]
*133 la_data_in[26]
*134 la_data_in[27]
*135 la_data_in[28]
*136 la_data_in[29]
*137 la_data_in[2]
*138 la_data_in[30]
*139 la_data_in[31]
*140 la_data_in[32]
*141 la_data_in[33]
*142 la_data_in[34]
*143 la_data_in[35]
*144 la_data_in[36]
*145 la_data_in[37]
*146 la_data_in[38]
*147 la_data_in[39]
*148 la_data_in[3]
*149 la_data_in[40]
*150 la_data_in[41]
*151 la_data_in[42]
*152 la_data_in[43]
*153 la_data_in[44]
*154 la_data_in[45]
*155 la_data_in[46]
*156 la_data_in[47]
*157 la_data_in[48]
*158 la_data_in[49]
*159 la_data_in[4]
*160 la_data_in[50]
*161 la_data_in[51]
*162 la_data_in[52]
*163 la_data_in[53]
*164 la_data_in[54]
*165 la_data_in[55]
*166 la_data_in[56]
*167 la_data_in[57]
*168 la_data_in[58]
*169 la_data_in[59]
*170 la_data_in[5]
*171 la_data_in[60]
*172 la_data_in[61]
*173 la_data_in[62]
*174 la_data_in[63]
*175 la_data_in[6]
*176 la_data_in[7]
*177 la_data_in[8]
*178 la_data_in[9]
*179 net20
*180 net30
*181 net31
*182 net32
*183 net33
*184 net34
*185 net35
*186 net36
*187 net37
*188 net38
*189 net39
*190 net21
*191 net40
*192 net41
*193 net42
*194 net43
*195 net44
*196 net45
*197 net46
*198 net47
*199 net48
*200 net49
*201 net22
*202 net50
*203 net51
*204 net52
*205 net53
*206 net54
*207 net55
*208 net56
*209 net57
*210 net58
*211 net59
*212 net23
*213 net60
*214 net61
*215 net62
*216 net63
*217 net64
*218 net65
*219 net66
*220 net67
*221 net68
*222 net69
*223 net24
*224 net70
*225 net71
*226 net72
*227 net73
*228 net74
*229 net75
*230 net76
*231 net77
*232 net78
*233 net79
*234 net25
*235 net80
*236 net81
*237 net82
*238 net83
*239 net26
*240 net27
*241 net28
*242 net29
*243 la_oenb[0]
*244 la_oenb[10]
*245 la_oenb[11]
*246 la_oenb[12]
*247 la_oenb[13]
*248 la_oenb[14]
*249 la_oenb[15]
*250 la_oenb[16]
*251 la_oenb[17]
*252 la_oenb[18]
*253 la_oenb[19]
*254 la_oenb[1]
*255 la_oenb[20]
*256 la_oenb[21]
*257 la_oenb[22]
*258 la_oenb[23]
*259 la_oenb[24]
*260 la_oenb[25]
*261 la_oenb[26]
*262 la_oenb[27]
*263 la_oenb[28]
*264 la_oenb[29]
*265 la_oenb[2]
*266 la_oenb[30]
*267 la_oenb[31]
*268 la_oenb[32]
*269 la_oenb[33]
*270 la_oenb[34]
*271 la_oenb[35]
*272 la_oenb[36]
*273 la_oenb[37]
*274 la_oenb[38]
*275 la_oenb[39]
*276 la_oenb[3]
*277 la_oenb[40]
*278 la_oenb[41]
*279 la_oenb[42]
*280 la_oenb[43]
*281 la_oenb[44]
*282 la_oenb[45]
*283 la_oenb[46]
*284 la_oenb[47]
*285 la_oenb[48]
*286 la_oenb[49]
*287 la_oenb[4]
*288 la_oenb[50]
*289 la_oenb[51]
*290 la_oenb[52]
*291 la_oenb[53]
*292 la_oenb[54]
*293 la_oenb[55]
*294 la_oenb[56]
*295 la_oenb[57]
*296 la_oenb[58]
*297 la_oenb[59]
*298 la_oenb[5]
*299 la_oenb[60]
*300 la_oenb[61]
*301 la_oenb[62]
*302 la_oenb[63]
*303 la_oenb[6]
*304 la_oenb[7]
*305 la_oenb[8]
*306 la_oenb[9]
*307 user_clock2
*308 net151
*309 net152
*310 net153
*313 wb_clk_i
*314 wb_rst_i
*315 net154
*316 wbs_adr_i[0]
*317 wbs_adr_i[10]
*318 wbs_adr_i[11]
*319 wbs_adr_i[12]
*320 wbs_adr_i[13]
*321 wbs_adr_i[14]
*322 wbs_adr_i[15]
*323 wbs_adr_i[16]
*324 wbs_adr_i[17]
*325 wbs_adr_i[18]
*326 wbs_adr_i[19]
*327 wbs_adr_i[1]
*328 wbs_adr_i[20]
*329 wbs_adr_i[21]
*330 wbs_adr_i[22]
*331 wbs_adr_i[23]
*332 wbs_adr_i[24]
*333 wbs_adr_i[25]
*334 wbs_adr_i[26]
*335 wbs_adr_i[27]
*336 wbs_adr_i[28]
*337 wbs_adr_i[29]
*338 wbs_adr_i[2]
*339 wbs_adr_i[30]
*340 wbs_adr_i[31]
*341 wbs_adr_i[3]
*342 wbs_adr_i[4]
*343 wbs_adr_i[5]
*344 wbs_adr_i[6]
*345 wbs_adr_i[7]
*346 wbs_adr_i[8]
*347 wbs_adr_i[9]
*348 wbs_cyc_i
*349 wbs_dat_i[0]
*350 wbs_dat_i[10]
*351 wbs_dat_i[11]
*352 wbs_dat_i[12]
*353 wbs_dat_i[13]
*354 wbs_dat_i[14]
*355 wbs_dat_i[15]
*356 wbs_dat_i[16]
*357 wbs_dat_i[17]
*358 wbs_dat_i[18]
*359 wbs_dat_i[19]
*360 wbs_dat_i[1]
*361 wbs_dat_i[20]
*362 wbs_dat_i[21]
*363 wbs_dat_i[22]
*364 wbs_dat_i[23]
*365 wbs_dat_i[24]
*366 wbs_dat_i[25]
*367 wbs_dat_i[26]
*368 wbs_dat_i[27]
*369 wbs_dat_i[28]
*370 wbs_dat_i[29]
*371 wbs_dat_i[2]
*372 wbs_dat_i[30]
*373 wbs_dat_i[31]
*374 wbs_dat_i[3]
*375 wbs_dat_i[4]
*376 wbs_dat_i[5]
*377 wbs_dat_i[6]
*378 wbs_dat_i[7]
*379 wbs_dat_i[8]
*380 wbs_dat_i[9]
*381 net155
*382 net165
*383 net166
*384 net167
*385 net168
*386 net169
*387 net170
*388 net171
*389 net172
*390 net173
*391 net174
*392 net156
*393 net175
*394 net176
*395 net177
*396 net178
*397 net179
*398 net180
*399 net181
*400 net182
*401 net183
*402 net184
*403 net157
*404 net185
*405 net186
*406 net158
*407 net159
*408 net160
*409 net161
*410 net162
*411 net163
*412 net164
*413 wbs_sel_i[0]
*414 wbs_sel_i[1]
*415 wbs_sel_i[2]
*416 wbs_sel_i[3]
*417 wbs_stb_i
*418 wbs_we_i
*419 _000_
*420 _001_
*421 _002_
*422 _003_
*423 _004_
*424 _005_
*425 _006_
*426 _007_
*427 _008_
*428 _009_
*429 _010_
*430 _011_
*431 _012_
*432 _013_
*433 _014_
*434 _015_
*435 _016_
*436 _017_
*437 _018_
*438 _019_
*439 _020_
*440 _021_
*441 _022_
*442 _023_
*443 _024_
*444 _025_
*445 _026_
*446 _027_
*447 _028_
*448 _029_
*449 _030_
*450 _031_
*451 _032_
*452 _033_
*453 _034_
*454 _035_
*455 _036_
*456 _037_
*457 _038_
*458 _039_
*459 _040_
*460 _041_
*461 _042_
*462 _043_
*463 _044_
*464 _045_
*465 _046_
*466 _047_
*467 _048_
*468 _049_
*469 _050_
*470 _051_
*471 _052_
*472 _053_
*473 _054_
*474 _055_
*475 _056_
*476 _057_
*477 _058_
*478 _059_
*479 _060_
*480 _061_
*481 _062_
*482 _063_
*483 _064_
*484 _065_
*485 _066_
*486 _067_
*487 _068_
*488 _069_
*489 _070_
*490 _071_
*491 _072_
*492 _073_
*493 _074_
*494 _075_
*495 mod\.dice0\.DiceValue\[0\]
*496 mod\.dice0\.DiceValue\[1\]
*497 mod\.dice0\.cont1\.enable_reg
*498 mod\.dice0\.rand1\.lfsr\[0\]\.D
*499 mod\.dice0\.rand1\.lfsr\[0\]\.Q
*500 mod\.dice0\.rand1\.lfsr\[10\]\.D
*501 mod\.dice0\.rand1\.lfsr\[10\]\.Q
*502 mod\.dice0\.rand1\.lfsr\[1\]\.D
*503 mod\.dice0\.rand1\.lfsr\[2\]\.D
*504 mod\.dice0\.rand1\.lfsr\[2\]\.nQ
*505 mod\.dice0\.rand1\.lfsr\[3\]\.D
*506 mod\.dice0\.rand1\.lfsr\[4\]\.D
*507 mod\.dice0\.rand1\.lfsr\[5\]\.D
*508 mod\.dice0\.rand1\.lfsr\[6\]\.D
*509 mod\.dice0\.rand1\.lfsr\[7\]\.D
*510 mod\.dice0\.rand1\.lfsr\[8\]\.D
*511 mod\.pdm_core\.accumulator\[0\]
*512 mod\.pdm_core\.accumulator\[1\]
*513 mod\.pdm_core\.accumulator\[2\]
*514 mod\.pdm_core\.accumulator\[3\]
*515 mod\.pdm_core\.accumulator\[4\]
*516 mod\.pdm_core\.input_reg\[0\]
*517 mod\.pdm_core\.input_reg\[1\]
*518 mod\.pdm_core\.input_reg\[2\]
*519 mod\.pdm_core\.input_reg\[3\]
*520 mod\.pdm_core\.input_reg\[4\]
*521 mod\.pdm_core\.sum\[0\]
*522 mod\.pdm_core\.sum\[1\]
*523 mod\.pdm_core\.sum\[2\]
*524 mod\.pdm_core\.sum\[3\]
*525 mod\.pdm_core\.sum\[4\]
*526 net1
*527 net10
*528 net11
*529 net12
*530 net13
*531 net14
*532 net15
*533 net16
*534 net17
*535 net18
*536 net19
*537 net2
*538 net3
*539 net4
*540 net5
*541 net6
*542 net7
*543 net8
*544 net9
*545 ANTENNA__076__I
*546 ANTENNA__077__I1
*547 ANTENNA__077__S
*548 ANTENNA__078__I
*549 ANTENNA__079__I0
*550 ANTENNA__079__I1
*551 ANTENNA__079__S
*552 ANTENNA__081__I0
*553 ANTENNA__081__I1
*554 ANTENNA__081__S
*555 ANTENNA__083__I0
*556 ANTENNA__083__I1
*557 ANTENNA__083__S
*558 ANTENNA__085__I0
*559 ANTENNA__085__I1
*560 ANTENNA__085__S
*561 ANTENNA__088__I
*562 ANTENNA__089__I
*563 ANTENNA__090__I
*564 ANTENNA__091__I
*565 ANTENNA__092__A1
*566 ANTENNA__092__A2
*567 ANTENNA__094__A1
*568 ANTENNA__094__A2
*569 ANTENNA__097__I
*570 ANTENNA__098__A1
*571 ANTENNA__098__A2
*572 ANTENNA__102__A1
*573 ANTENNA__102__A2
*574 ANTENNA__103__A1
*575 ANTENNA__104__A1
*576 ANTENNA__104__A2
*577 ANTENNA__105__A1
*578 ANTENNA__106__A1
*579 ANTENNA__107__A1
*580 ANTENNA__108__A1
*581 ANTENNA__108__A2
*582 ANTENNA__109__A1
*583 ANTENNA__109__A2
*584 ANTENNA__114__I
*585 ANTENNA__115__A1
*586 ANTENNA__117__A1
*587 ANTENNA__117__A2
*588 ANTENNA__122__A1
*589 ANTENNA__124__A1
*590 ANTENNA__125__A1
*591 ANTENNA__125__A2
*592 ANTENNA__128__I
*593 ANTENNA__129__I
*594 ANTENNA__130__I
*595 ANTENNA__131__I
*596 ANTENNA__132__I
*597 ANTENNA__133__I
*598 ANTENNA__134__I
*599 ANTENNA__135__I
*600 ANTENNA__136__I
*601 ANTENNA__137__I
*602 ANTENNA__138__I
*603 ANTENNA__139__I
*604 ANTENNA__140__I
*605 ANTENNA__141__A1
*606 ANTENNA__141__A2
*607 ANTENNA__142__A1
*608 ANTENNA__143__I
*609 ANTENNA__144__A1
*610 ANTENNA__144__A2
*611 ANTENNA__144__B
*612 ANTENNA__145__A1
*613 ANTENNA__145__A2
*614 ANTENNA__145__B
*615 ANTENNA__146__I
*616 ANTENNA__147__A1
*617 ANTENNA__147__A2
*618 ANTENNA__147__A3
*619 ANTENNA__148__I
*620 ANTENNA__149__A1
*621 ANTENNA__149__A2
*622 ANTENNA__149__A3
*623 ANTENNA__150__A1
*624 ANTENNA__150__A2
*625 ANTENNA__150__A3
*626 ANTENNA__151__A1
*627 ANTENNA__152__A1
*628 ANTENNA__152__A2
*629 ANTENNA__153__A1
*630 ANTENNA__153__A2
*631 ANTENNA__153__A3
*632 ANTENNA__154__A1
*633 ANTENNA__155__A1
*634 ANTENNA__155__A2
*635 ANTENNA__156__A1
*636 ANTENNA__156__B2
*637 ANTENNA__157__A1
*638 ANTENNA__157__A2
*639 ANTENNA__157__B1
*640 ANTENNA__158__A1
*641 ANTENNA__158__A2
*642 ANTENNA__159__A1
*643 ANTENNA__160__A1
*644 ANTENNA__160__A2
*645 ANTENNA__160__B1
*646 ANTENNA__161__A1
*647 ANTENNA__161__A2
*648 ANTENNA__162__A1
*649 ANTENNA__162__A2
*650 ANTENNA__162__B
*651 ANTENNA__163__CLK
*652 ANTENNA__164__CLK
*653 ANTENNA__164__RN
*654 ANTENNA__165__CLK
*655 ANTENNA__166__CLK
*656 ANTENNA__167__CLK
*657 ANTENNA__168__CLK
*658 ANTENNA__168__RN
*659 ANTENNA__169__CLK
*660 ANTENNA__169__RN
*661 ANTENNA__170__CLK
*662 ANTENNA__170__RN
*663 ANTENNA__171__CLK
*664 ANTENNA__171__RN
*665 ANTENNA__172__CLK
*666 ANTENNA__172__D
*667 ANTENNA__172__RN
*668 ANTENNA__173__CLK
*669 ANTENNA__173__RN
*670 ANTENNA__174__CLK
*671 ANTENNA__174__RN
*672 ANTENNA__175__CLK
*673 ANTENNA__175__RN
*674 ANTENNA__176__CLK
*675 ANTENNA__176__RN
*676 ANTENNA__177__CLK
*677 ANTENNA__177__SETN
*678 ANTENNA__178__CLK
*679 ANTENNA__178__RN
*680 ANTENNA__179__CLK
*681 ANTENNA__179__D
*682 ANTENNA__179__RN
*683 ANTENNA__180__CLK
*684 ANTENNA__180__D
*685 ANTENNA__180__RN
*686 ANTENNA__181__CLK
*687 ANTENNA__182__CLK
*688 ANTENNA__183__CLK
*689 ANTENNA__184__CLK
*690 ANTENNA__185__CLK
*691 ANTENNA__186__CLK
*692 ANTENNA__186__SETN
*693 ANTENNA__187__CLK
*694 ANTENNA__187__RN
*695 ANTENNA__188__CLK
*696 ANTENNA__188__D
*697 ANTENNA__188__RN
*698 ANTENNA__356__I
*699 ANTENNA__357__I
*700 ANTENNA__358__I
*701 ANTENNA_input10_I
*702 ANTENNA_input1_I
*703 ANTENNA_input2_I
*704 ANTENNA_input3_I
*705 ANTENNA_input4_I
*706 ANTENNA_input5_I
*707 ANTENNA_input6_I
*708 ANTENNA_input7_I
*709 ANTENNA_input8_I
*710 ANTENNA_input9_I
*711 ANTENNA_output11_I
*712 ANTENNA_output12_I
*713 ANTENNA_output14_I
*714 ANTENNA_output16_I
*715 ANTENNA_output17_I
*716 ANTENNA_output18_I
*717 ANTENNA_output19_I
*718 FILLER_0_1005
*719 FILLER_0_101
*720 FILLER_0_1013
*721 FILLER_0_1017
*722 FILLER_0_1025
*723 FILLER_0_1029
*724 FILLER_0_1044
*725 FILLER_0_107
*726 FILLER_0_11
*727 FILLER_0_115
*728 FILLER_0_119
*729 FILLER_0_125
*730 FILLER_0_133
*731 FILLER_0_137
*732 FILLER_0_139
*733 FILLER_0_142
*734 FILLER_0_174
*735 FILLER_0_177
*736 FILLER_0_2
*737 FILLER_0_209
*738 FILLER_0_212
*739 FILLER_0_228
*740 FILLER_0_233
*741 FILLER_0_237
*742 FILLER_0_239
*743 FILLER_0_244
*744 FILLER_0_247
*745 FILLER_0_251
*746 FILLER_0_257
*747 FILLER_0_263
*748 FILLER_0_27
*749 FILLER_0_279
*750 FILLER_0_282
*751 FILLER_0_287
*752 FILLER_0_299
*753 FILLER_0_317
*754 FILLER_0_323
*755 FILLER_0_329
*756 FILLER_0_345
*757 FILLER_0_349
*758 FILLER_0_352
*759 FILLER_0_368
*760 FILLER_0_37
*761 FILLER_0_372
*762 FILLER_0_377
*763 FILLER_0_387
*764 FILLER_0_395
*765 FILLER_0_411
*766 FILLER_0_419
*767 FILLER_0_422
*768 FILLER_0_426
*769 FILLER_0_431
*770 FILLER_0_447
*771 FILLER_0_449
*772 FILLER_0_454
*773 FILLER_0_457
*774 FILLER_0_462
*775 FILLER_0_466
*776 FILLER_0_468
*777 FILLER_0_483
*778 FILLER_0_489
*779 FILLER_0_492
*780 FILLER_0_508
*781 FILLER_0_516
*782 FILLER_0_521
*783 FILLER_0_527
*784 FILLER_0_53
*785 FILLER_0_543
*786 FILLER_0_551
*787 FILLER_0_559
*788 FILLER_0_562
*789 FILLER_0_59
*790 FILLER_0_594
*791 FILLER_0_597
*792 FILLER_0_6
*793 FILLER_0_602
*794 FILLER_0_608
*795 FILLER_0_612
*796 FILLER_0_617
*797 FILLER_0_625
*798 FILLER_0_629
*799 FILLER_0_632
*800 FILLER_0_65
*801 FILLER_0_664
*802 FILLER_0_667
*803 FILLER_0_672
*804 FILLER_0_676
*805 FILLER_0_678
*806 FILLER_0_683
*807 FILLER_0_69
*808 FILLER_0_695
*809 FILLER_0_699
*810 FILLER_0_702
*811 FILLER_0_718
*812 FILLER_0_72
*813 FILLER_0_726
*814 FILLER_0_731
*815 FILLER_0_737
*816 FILLER_0_749
*817 FILLER_0_761
*818 FILLER_0_769
*819 FILLER_0_77
*820 FILLER_0_772
*821 FILLER_0_777
*822 FILLER_0_793
*823 FILLER_0_801
*824 FILLER_0_807
*825 FILLER_0_827
*826 FILLER_0_835
*827 FILLER_0_839
*828 FILLER_0_842
*829 FILLER_0_874
*830 FILLER_0_877
*831 FILLER_0_885
*832 FILLER_0_893
*833 FILLER_0_909
*834 FILLER_0_912
*835 FILLER_0_93
*836 FILLER_0_944
*837 FILLER_0_947
*838 FILLER_0_952
*839 FILLER_0_960
*840 FILLER_0_964
*841 FILLER_0_966
*842 FILLER_0_971
*843 FILLER_0_979
*844 FILLER_0_982
*845 FILLER_0_987
*846 FILLER_100_101
*847 FILLER_100_1024
*848 FILLER_100_1028
*849 FILLER_100_1031
*850 FILLER_100_1039
*851 FILLER_100_1043
*852 FILLER_100_105
*853 FILLER_100_108
*854 FILLER_100_172
*855 FILLER_100_176
*856 FILLER_100_179
*857 FILLER_100_2
*858 FILLER_100_243
*859 FILLER_100_247
*860 FILLER_100_250
*861 FILLER_100_314
*862 FILLER_100_318
*863 FILLER_100_321
*864 FILLER_100_34
*865 FILLER_100_37
*866 FILLER_100_385
*867 FILLER_100_389
*868 FILLER_100_392
*869 FILLER_100_456
*870 FILLER_100_460
*871 FILLER_100_463
*872 FILLER_100_527
*873 FILLER_100_531
*874 FILLER_100_534
*875 FILLER_100_598
*876 FILLER_100_602
*877 FILLER_100_605
*878 FILLER_100_669
*879 FILLER_100_673
*880 FILLER_100_676
*881 FILLER_100_740
*882 FILLER_100_744
*883 FILLER_100_747
*884 FILLER_100_811
*885 FILLER_100_815
*886 FILLER_100_818
*887 FILLER_100_882
*888 FILLER_100_886
*889 FILLER_100_889
*890 FILLER_100_953
*891 FILLER_100_957
*892 FILLER_100_960
*893 FILLER_101_1028
*894 FILLER_101_1036
*895 FILLER_101_1044
*896 FILLER_101_137
*897 FILLER_101_141
*898 FILLER_101_144
*899 FILLER_101_2
*900 FILLER_101_208
*901 FILLER_101_212
*902 FILLER_101_215
*903 FILLER_101_279
*904 FILLER_101_283
*905 FILLER_101_286
*906 FILLER_101_350
*907 FILLER_101_354
*908 FILLER_101_357
*909 FILLER_101_421
*910 FILLER_101_425
*911 FILLER_101_428
*912 FILLER_101_492
*913 FILLER_101_496
*914 FILLER_101_499
*915 FILLER_101_563
*916 FILLER_101_567
*917 FILLER_101_570
*918 FILLER_101_634
*919 FILLER_101_638
*920 FILLER_101_641
*921 FILLER_101_66
*922 FILLER_101_70
*923 FILLER_101_705
*924 FILLER_101_709
*925 FILLER_101_712
*926 FILLER_101_73
*927 FILLER_101_776
*928 FILLER_101_780
*929 FILLER_101_783
*930 FILLER_101_847
*931 FILLER_101_851
*932 FILLER_101_854
*933 FILLER_101_918
*934 FILLER_101_922
*935 FILLER_101_925
*936 FILLER_101_989
*937 FILLER_101_993
*938 FILLER_101_996
*939 FILLER_102_101
*940 FILLER_102_1024
*941 FILLER_102_1028
*942 FILLER_102_1031
*943 FILLER_102_1039
*944 FILLER_102_1043
*945 FILLER_102_105
*946 FILLER_102_108
*947 FILLER_102_13
*948 FILLER_102_172
*949 FILLER_102_176
*950 FILLER_102_179
*951 FILLER_102_2
*952 FILLER_102_243
*953 FILLER_102_247
*954 FILLER_102_250
*955 FILLER_102_29
*956 FILLER_102_314
*957 FILLER_102_318
*958 FILLER_102_321
*959 FILLER_102_33
*960 FILLER_102_37
*961 FILLER_102_385
*962 FILLER_102_389
*963 FILLER_102_392
*964 FILLER_102_456
*965 FILLER_102_460
*966 FILLER_102_463
*967 FILLER_102_527
*968 FILLER_102_531
*969 FILLER_102_534
*970 FILLER_102_598
*971 FILLER_102_602
*972 FILLER_102_605
*973 FILLER_102_669
*974 FILLER_102_673
*975 FILLER_102_676
*976 FILLER_102_7
*977 FILLER_102_740
*978 FILLER_102_744
*979 FILLER_102_747
*980 FILLER_102_811
*981 FILLER_102_815
*982 FILLER_102_818
*983 FILLER_102_882
*984 FILLER_102_886
*985 FILLER_102_889
*986 FILLER_102_953
*987 FILLER_102_957
*988 FILLER_102_960
*989 FILLER_103_1028
*990 FILLER_103_1036
*991 FILLER_103_1044
*992 FILLER_103_137
*993 FILLER_103_141
*994 FILLER_103_144
*995 FILLER_103_2
*996 FILLER_103_208
*997 FILLER_103_212
*998 FILLER_103_215
*999 FILLER_103_279
*1000 FILLER_103_283
*1001 FILLER_103_286
*1002 FILLER_103_350
*1003 FILLER_103_354
*1004 FILLER_103_357
*1005 FILLER_103_421
*1006 FILLER_103_425
*1007 FILLER_103_428
*1008 FILLER_103_492
*1009 FILLER_103_496
*1010 FILLER_103_499
*1011 FILLER_103_563
*1012 FILLER_103_567
*1013 FILLER_103_570
*1014 FILLER_103_634
*1015 FILLER_103_638
*1016 FILLER_103_641
*1017 FILLER_103_66
*1018 FILLER_103_70
*1019 FILLER_103_705
*1020 FILLER_103_709
*1021 FILLER_103_712
*1022 FILLER_103_73
*1023 FILLER_103_776
*1024 FILLER_103_780
*1025 FILLER_103_783
*1026 FILLER_103_847
*1027 FILLER_103_851
*1028 FILLER_103_854
*1029 FILLER_103_918
*1030 FILLER_103_922
*1031 FILLER_103_925
*1032 FILLER_103_989
*1033 FILLER_103_993
*1034 FILLER_103_996
*1035 FILLER_104_101
*1036 FILLER_104_1024
*1037 FILLER_104_1028
*1038 FILLER_104_1031
*1039 FILLER_104_1039
*1040 FILLER_104_1043
*1041 FILLER_104_105
*1042 FILLER_104_108
*1043 FILLER_104_17
*1044 FILLER_104_172
*1045 FILLER_104_176
*1046 FILLER_104_179
*1047 FILLER_104_2
*1048 FILLER_104_21
*1049 FILLER_104_243
*1050 FILLER_104_247
*1051 FILLER_104_250
*1052 FILLER_104_29
*1053 FILLER_104_314
*1054 FILLER_104_318
*1055 FILLER_104_321
*1056 FILLER_104_33
*1057 FILLER_104_37
*1058 FILLER_104_385
*1059 FILLER_104_389
*1060 FILLER_104_392
*1061 FILLER_104_456
*1062 FILLER_104_460
*1063 FILLER_104_463
*1064 FILLER_104_527
*1065 FILLER_104_531
*1066 FILLER_104_534
*1067 FILLER_104_598
*1068 FILLER_104_602
*1069 FILLER_104_605
*1070 FILLER_104_669
*1071 FILLER_104_673
*1072 FILLER_104_676
*1073 FILLER_104_740
*1074 FILLER_104_744
*1075 FILLER_104_747
*1076 FILLER_104_811
*1077 FILLER_104_815
*1078 FILLER_104_818
*1079 FILLER_104_882
*1080 FILLER_104_886
*1081 FILLER_104_889
*1082 FILLER_104_953
*1083 FILLER_104_957
*1084 FILLER_104_960
*1085 FILLER_105_1028
*1086 FILLER_105_1044
*1087 FILLER_105_137
*1088 FILLER_105_141
*1089 FILLER_105_144
*1090 FILLER_105_2
*1091 FILLER_105_208
*1092 FILLER_105_212
*1093 FILLER_105_215
*1094 FILLER_105_279
*1095 FILLER_105_283
*1096 FILLER_105_286
*1097 FILLER_105_350
*1098 FILLER_105_354
*1099 FILLER_105_357
*1100 FILLER_105_421
*1101 FILLER_105_425
*1102 FILLER_105_428
*1103 FILLER_105_492
*1104 FILLER_105_496
*1105 FILLER_105_499
*1106 FILLER_105_563
*1107 FILLER_105_567
*1108 FILLER_105_570
*1109 FILLER_105_634
*1110 FILLER_105_638
*1111 FILLER_105_641
*1112 FILLER_105_66
*1113 FILLER_105_70
*1114 FILLER_105_705
*1115 FILLER_105_709
*1116 FILLER_105_712
*1117 FILLER_105_73
*1118 FILLER_105_776
*1119 FILLER_105_780
*1120 FILLER_105_783
*1121 FILLER_105_847
*1122 FILLER_105_851
*1123 FILLER_105_854
*1124 FILLER_105_918
*1125 FILLER_105_922
*1126 FILLER_105_925
*1127 FILLER_105_989
*1128 FILLER_105_993
*1129 FILLER_105_996
*1130 FILLER_106_101
*1131 FILLER_106_1024
*1132 FILLER_106_1028
*1133 FILLER_106_1031
*1134 FILLER_106_1039
*1135 FILLER_106_1043
*1136 FILLER_106_105
*1137 FILLER_106_108
*1138 FILLER_106_172
*1139 FILLER_106_176
*1140 FILLER_106_179
*1141 FILLER_106_2
*1142 FILLER_106_243
*1143 FILLER_106_247
*1144 FILLER_106_250
*1145 FILLER_106_314
*1146 FILLER_106_318
*1147 FILLER_106_321
*1148 FILLER_106_34
*1149 FILLER_106_37
*1150 FILLER_106_385
*1151 FILLER_106_389
*1152 FILLER_106_392
*1153 FILLER_106_456
*1154 FILLER_106_460
*1155 FILLER_106_463
*1156 FILLER_106_527
*1157 FILLER_106_531
*1158 FILLER_106_534
*1159 FILLER_106_598
*1160 FILLER_106_602
*1161 FILLER_106_605
*1162 FILLER_106_669
*1163 FILLER_106_673
*1164 FILLER_106_676
*1165 FILLER_106_740
*1166 FILLER_106_744
*1167 FILLER_106_747
*1168 FILLER_106_811
*1169 FILLER_106_815
*1170 FILLER_106_818
*1171 FILLER_106_882
*1172 FILLER_106_886
*1173 FILLER_106_889
*1174 FILLER_106_953
*1175 FILLER_106_957
*1176 FILLER_106_960
*1177 FILLER_107_1028
*1178 FILLER_107_1044
*1179 FILLER_107_137
*1180 FILLER_107_141
*1181 FILLER_107_144
*1182 FILLER_107_2
*1183 FILLER_107_208
*1184 FILLER_107_212
*1185 FILLER_107_215
*1186 FILLER_107_279
*1187 FILLER_107_283
*1188 FILLER_107_286
*1189 FILLER_107_350
*1190 FILLER_107_354
*1191 FILLER_107_357
*1192 FILLER_107_421
*1193 FILLER_107_425
*1194 FILLER_107_428
*1195 FILLER_107_492
*1196 FILLER_107_496
*1197 FILLER_107_499
*1198 FILLER_107_563
*1199 FILLER_107_567
*1200 FILLER_107_570
*1201 FILLER_107_634
*1202 FILLER_107_638
*1203 FILLER_107_641
*1204 FILLER_107_66
*1205 FILLER_107_70
*1206 FILLER_107_705
*1207 FILLER_107_709
*1208 FILLER_107_712
*1209 FILLER_107_73
*1210 FILLER_107_776
*1211 FILLER_107_780
*1212 FILLER_107_783
*1213 FILLER_107_847
*1214 FILLER_107_851
*1215 FILLER_107_854
*1216 FILLER_107_918
*1217 FILLER_107_922
*1218 FILLER_107_925
*1219 FILLER_107_989
*1220 FILLER_107_993
*1221 FILLER_107_996
*1222 FILLER_108_101
*1223 FILLER_108_1024
*1224 FILLER_108_1028
*1225 FILLER_108_1031
*1226 FILLER_108_1039
*1227 FILLER_108_1044
*1228 FILLER_108_105
*1229 FILLER_108_108
*1230 FILLER_108_172
*1231 FILLER_108_176
*1232 FILLER_108_179
*1233 FILLER_108_2
*1234 FILLER_108_243
*1235 FILLER_108_247
*1236 FILLER_108_250
*1237 FILLER_108_314
*1238 FILLER_108_318
*1239 FILLER_108_321
*1240 FILLER_108_34
*1241 FILLER_108_37
*1242 FILLER_108_385
*1243 FILLER_108_389
*1244 FILLER_108_392
*1245 FILLER_108_456
*1246 FILLER_108_460
*1247 FILLER_108_463
*1248 FILLER_108_527
*1249 FILLER_108_531
*1250 FILLER_108_534
*1251 FILLER_108_598
*1252 FILLER_108_602
*1253 FILLER_108_605
*1254 FILLER_108_669
*1255 FILLER_108_673
*1256 FILLER_108_676
*1257 FILLER_108_740
*1258 FILLER_108_744
*1259 FILLER_108_747
*1260 FILLER_108_811
*1261 FILLER_108_815
*1262 FILLER_108_818
*1263 FILLER_108_882
*1264 FILLER_108_886
*1265 FILLER_108_889
*1266 FILLER_108_953
*1267 FILLER_108_957
*1268 FILLER_108_960
*1269 FILLER_109_1028
*1270 FILLER_109_1044
*1271 FILLER_109_137
*1272 FILLER_109_141
*1273 FILLER_109_144
*1274 FILLER_109_2
*1275 FILLER_109_208
*1276 FILLER_109_212
*1277 FILLER_109_215
*1278 FILLER_109_279
*1279 FILLER_109_283
*1280 FILLER_109_286
*1281 FILLER_109_350
*1282 FILLER_109_354
*1283 FILLER_109_357
*1284 FILLER_109_421
*1285 FILLER_109_425
*1286 FILLER_109_428
*1287 FILLER_109_492
*1288 FILLER_109_496
*1289 FILLER_109_499
*1290 FILLER_109_563
*1291 FILLER_109_567
*1292 FILLER_109_570
*1293 FILLER_109_634
*1294 FILLER_109_638
*1295 FILLER_109_641
*1296 FILLER_109_66
*1297 FILLER_109_70
*1298 FILLER_109_705
*1299 FILLER_109_709
*1300 FILLER_109_712
*1301 FILLER_109_73
*1302 FILLER_109_776
*1303 FILLER_109_780
*1304 FILLER_109_783
*1305 FILLER_109_847
*1306 FILLER_109_851
*1307 FILLER_109_854
*1308 FILLER_109_918
*1309 FILLER_109_922
*1310 FILLER_109_925
*1311 FILLER_109_989
*1312 FILLER_109_993
*1313 FILLER_109_996
*1314 FILLER_10_101
*1315 FILLER_10_1024
*1316 FILLER_10_1028
*1317 FILLER_10_1031
*1318 FILLER_10_1039
*1319 FILLER_10_1043
*1320 FILLER_10_105
*1321 FILLER_10_108
*1322 FILLER_10_172
*1323 FILLER_10_176
*1324 FILLER_10_179
*1325 FILLER_10_2
*1326 FILLER_10_23
*1327 FILLER_10_243
*1328 FILLER_10_247
*1329 FILLER_10_250
*1330 FILLER_10_31
*1331 FILLER_10_314
*1332 FILLER_10_318
*1333 FILLER_10_321
*1334 FILLER_10_37
*1335 FILLER_10_385
*1336 FILLER_10_389
*1337 FILLER_10_392
*1338 FILLER_10_456
*1339 FILLER_10_460
*1340 FILLER_10_463
*1341 FILLER_10_527
*1342 FILLER_10_531
*1343 FILLER_10_534
*1344 FILLER_10_598
*1345 FILLER_10_602
*1346 FILLER_10_605
*1347 FILLER_10_669
*1348 FILLER_10_673
*1349 FILLER_10_676
*1350 FILLER_10_7
*1351 FILLER_10_740
*1352 FILLER_10_744
*1353 FILLER_10_747
*1354 FILLER_10_811
*1355 FILLER_10_815
*1356 FILLER_10_818
*1357 FILLER_10_882
*1358 FILLER_10_886
*1359 FILLER_10_889
*1360 FILLER_10_953
*1361 FILLER_10_957
*1362 FILLER_10_960
*1363 FILLER_110_101
*1364 FILLER_110_1024
*1365 FILLER_110_1028
*1366 FILLER_110_1031
*1367 FILLER_110_1039
*1368 FILLER_110_1043
*1369 FILLER_110_105
*1370 FILLER_110_108
*1371 FILLER_110_172
*1372 FILLER_110_176
*1373 FILLER_110_179
*1374 FILLER_110_2
*1375 FILLER_110_21
*1376 FILLER_110_243
*1377 FILLER_110_247
*1378 FILLER_110_250
*1379 FILLER_110_29
*1380 FILLER_110_314
*1381 FILLER_110_318
*1382 FILLER_110_321
*1383 FILLER_110_33
*1384 FILLER_110_37
*1385 FILLER_110_385
*1386 FILLER_110_389
*1387 FILLER_110_392
*1388 FILLER_110_456
*1389 FILLER_110_460
*1390 FILLER_110_463
*1391 FILLER_110_5
*1392 FILLER_110_527
*1393 FILLER_110_531
*1394 FILLER_110_534
*1395 FILLER_110_598
*1396 FILLER_110_602
*1397 FILLER_110_605
*1398 FILLER_110_669
*1399 FILLER_110_673
*1400 FILLER_110_676
*1401 FILLER_110_740
*1402 FILLER_110_744
*1403 FILLER_110_747
*1404 FILLER_110_811
*1405 FILLER_110_815
*1406 FILLER_110_818
*1407 FILLER_110_882
*1408 FILLER_110_886
*1409 FILLER_110_889
*1410 FILLER_110_953
*1411 FILLER_110_957
*1412 FILLER_110_960
*1413 FILLER_111_1028
*1414 FILLER_111_1044
*1415 FILLER_111_137
*1416 FILLER_111_141
*1417 FILLER_111_144
*1418 FILLER_111_2
*1419 FILLER_111_208
*1420 FILLER_111_212
*1421 FILLER_111_215
*1422 FILLER_111_279
*1423 FILLER_111_283
*1424 FILLER_111_286
*1425 FILLER_111_350
*1426 FILLER_111_354
*1427 FILLER_111_357
*1428 FILLER_111_41
*1429 FILLER_111_421
*1430 FILLER_111_425
*1431 FILLER_111_428
*1432 FILLER_111_492
*1433 FILLER_111_496
*1434 FILLER_111_499
*1435 FILLER_111_563
*1436 FILLER_111_567
*1437 FILLER_111_57
*1438 FILLER_111_570
*1439 FILLER_111_634
*1440 FILLER_111_638
*1441 FILLER_111_641
*1442 FILLER_111_65
*1443 FILLER_111_69
*1444 FILLER_111_705
*1445 FILLER_111_709
*1446 FILLER_111_712
*1447 FILLER_111_73
*1448 FILLER_111_776
*1449 FILLER_111_780
*1450 FILLER_111_783
*1451 FILLER_111_847
*1452 FILLER_111_851
*1453 FILLER_111_854
*1454 FILLER_111_9
*1455 FILLER_111_918
*1456 FILLER_111_922
*1457 FILLER_111_925
*1458 FILLER_111_989
*1459 FILLER_111_993
*1460 FILLER_111_996
*1461 FILLER_112_101
*1462 FILLER_112_1024
*1463 FILLER_112_1028
*1464 FILLER_112_1031
*1465 FILLER_112_1039
*1466 FILLER_112_1044
*1467 FILLER_112_105
*1468 FILLER_112_108
*1469 FILLER_112_172
*1470 FILLER_112_176
*1471 FILLER_112_179
*1472 FILLER_112_2
*1473 FILLER_112_23
*1474 FILLER_112_243
*1475 FILLER_112_247
*1476 FILLER_112_250
*1477 FILLER_112_31
*1478 FILLER_112_314
*1479 FILLER_112_318
*1480 FILLER_112_321
*1481 FILLER_112_37
*1482 FILLER_112_385
*1483 FILLER_112_389
*1484 FILLER_112_392
*1485 FILLER_112_456
*1486 FILLER_112_460
*1487 FILLER_112_463
*1488 FILLER_112_527
*1489 FILLER_112_531
*1490 FILLER_112_534
*1491 FILLER_112_598
*1492 FILLER_112_602
*1493 FILLER_112_605
*1494 FILLER_112_669
*1495 FILLER_112_673
*1496 FILLER_112_676
*1497 FILLER_112_7
*1498 FILLER_112_740
*1499 FILLER_112_744
*1500 FILLER_112_747
*1501 FILLER_112_811
*1502 FILLER_112_815
*1503 FILLER_112_818
*1504 FILLER_112_882
*1505 FILLER_112_886
*1506 FILLER_112_889
*1507 FILLER_112_953
*1508 FILLER_112_957
*1509 FILLER_112_960
*1510 FILLER_113_1028
*1511 FILLER_113_1044
*1512 FILLER_113_137
*1513 FILLER_113_141
*1514 FILLER_113_144
*1515 FILLER_113_2
*1516 FILLER_113_208
*1517 FILLER_113_212
*1518 FILLER_113_215
*1519 FILLER_113_279
*1520 FILLER_113_283
*1521 FILLER_113_286
*1522 FILLER_113_350
*1523 FILLER_113_354
*1524 FILLER_113_357
*1525 FILLER_113_421
*1526 FILLER_113_425
*1527 FILLER_113_428
*1528 FILLER_113_492
*1529 FILLER_113_496
*1530 FILLER_113_499
*1531 FILLER_113_563
*1532 FILLER_113_567
*1533 FILLER_113_570
*1534 FILLER_113_634
*1535 FILLER_113_638
*1536 FILLER_113_641
*1537 FILLER_113_66
*1538 FILLER_113_70
*1539 FILLER_113_705
*1540 FILLER_113_709
*1541 FILLER_113_712
*1542 FILLER_113_73
*1543 FILLER_113_776
*1544 FILLER_113_780
*1545 FILLER_113_783
*1546 FILLER_113_847
*1547 FILLER_113_851
*1548 FILLER_113_854
*1549 FILLER_113_918
*1550 FILLER_113_922
*1551 FILLER_113_925
*1552 FILLER_113_989
*1553 FILLER_113_993
*1554 FILLER_113_996
*1555 FILLER_114_101
*1556 FILLER_114_1024
*1557 FILLER_114_1028
*1558 FILLER_114_1031
*1559 FILLER_114_1039
*1560 FILLER_114_1043
*1561 FILLER_114_105
*1562 FILLER_114_108
*1563 FILLER_114_172
*1564 FILLER_114_176
*1565 FILLER_114_179
*1566 FILLER_114_2
*1567 FILLER_114_23
*1568 FILLER_114_243
*1569 FILLER_114_247
*1570 FILLER_114_250
*1571 FILLER_114_31
*1572 FILLER_114_314
*1573 FILLER_114_318
*1574 FILLER_114_321
*1575 FILLER_114_37
*1576 FILLER_114_385
*1577 FILLER_114_389
*1578 FILLER_114_392
*1579 FILLER_114_456
*1580 FILLER_114_460
*1581 FILLER_114_463