*SPEF "ieee 1481-1999"
*DESIGN "user_project_wrapper"
*DATE "11:11:11 Fri 11 11, 1111"
*VENDOR "OpenRCX"
*PROGRAM "Parallel Extraction"
*VERSION "1.0"
*DESIGN_FLOW "NAME_SCOPE LOCAL" "PIN_CAP NONE"
*DIVIDER /
*DELIMITER :
*BUS_DELIMITER []
*T_UNIT 1 NS
*C_UNIT 1 PF
*R_UNIT 1 OHM
*L_UNIT 1 HENRY

*NAME_MAP
*1 io_in[0]
*2 io_in[10]
*3 io_in[11]
*4 io_in[12]
*5 io_in[13]
*6 io_in[14]
*7 io_in[15]
*8 io_in[16]
*9 io_in[17]
*10 io_in[18]
*11 io_in[19]
*12 io_in[1]
*13 io_in[20]
*14 io_in[21]
*15 io_in[22]
*16 io_in[23]
*17 io_in[24]
*18 io_in[25]
*19 io_in[26]
*20 io_in[27]
*21 io_in[28]
*22 io_in[29]
*23 io_in[2]
*24 io_in[30]
*25 io_in[31]
*26 io_in[32]
*27 io_in[33]
*28 io_in[34]
*29 io_in[35]
*30 io_in[36]
*31 io_in[37]
*32 io_in[3]
*33 io_in[4]
*34 io_in[5]
*35 io_in[6]
*36 io_in[7]
*37 io_in[8]
*38 io_in[9]
*39 io_oeb[0]
*40 io_oeb[10]
*41 io_oeb[11]
*42 io_oeb[12]
*43 io_oeb[13]
*44 io_oeb[14]
*45 io_oeb[15]
*46 io_oeb[16]
*47 io_oeb[17]
*48 io_oeb[18]
*49 io_oeb[19]
*50 io_oeb[1]
*51 io_oeb[20]
*52 io_oeb[21]
*53 io_oeb[22]
*54 io_oeb[23]
*55 io_oeb[24]
*56 io_oeb[25]
*57 io_oeb[26]
*58 io_oeb[27]
*59 io_oeb[28]
*60 io_oeb[29]
*61 io_oeb[2]
*62 io_oeb[30]
*63 io_oeb[31]
*64 io_oeb[32]
*65 io_oeb[33]
*66 io_oeb[34]
*67 io_oeb[35]
*68 io_oeb[36]
*69 io_oeb[37]
*70 io_oeb[3]
*71 io_oeb[4]
*72 io_oeb[5]
*73 io_oeb[6]
*74 io_oeb[7]
*75 io_oeb[8]
*76 io_oeb[9]
*77 io_out[0]
*78 io_out[10]
*79 io_out[11]
*80 io_out[12]
*81 io_out[13]
*82 io_out[14]
*83 io_out[15]
*84 io_out[16]
*85 io_out[17]
*86 io_out[18]
*87 io_out[19]
*88 io_out[1]
*89 io_out[20]
*90 io_out[21]
*91 io_out[22]
*92 io_out[23]
*93 io_out[24]
*94 io_out[25]
*95 io_out[26]
*96 io_out[27]
*97 io_out[28]
*98 io_out[29]
*99 io_out[2]
*100 io_out[30]
*101 io_out[31]
*102 io_out[32]
*103 io_out[33]
*104 io_out[34]
*105 io_out[35]
*106 io_out[36]
*107 io_out[37]
*108 io_out[3]
*109 io_out[4]
*110 io_out[5]
*111 io_out[6]
*112 io_out[7]
*113 io_out[8]
*114 io_out[9]
*115 la_data_in[0]
*116 la_data_in[10]
*117 la_data_in[11]
*118 la_data_in[12]
*119 la_data_in[13]
*120 la_data_in[14]
*121 la_data_in[15]
*122 la_data_in[16]
*123 la_data_in[17]
*124 la_data_in[18]
*125 la_data_in[19]
*126 la_data_in[1]
*127 la_data_in[20]
*128 la_data_in[21]
*129 la_data_in[22]
*130 la_data_in[23]
*131 la_data_in[24]
*132 la_data_in[25]
*133 la_data_in[26]
*134 la_data_in[27]
*135 la_data_in[28]
*136 la_data_in[29]
*137 la_data_in[2]
*138 la_data_in[30]
*139 la_data_in[31]
*140 la_data_in[32]
*141 la_data_in[33]
*142 la_data_in[34]
*143 la_data_in[35]
*144 la_data_in[36]
*145 la_data_in[37]
*146 la_data_in[38]
*147 la_data_in[39]
*148 la_data_in[3]
*149 la_data_in[40]
*150 la_data_in[41]
*151 la_data_in[42]
*152 la_data_in[43]
*153 la_data_in[44]
*154 la_data_in[45]
*155 la_data_in[46]
*156 la_data_in[47]
*157 la_data_in[48]
*158 la_data_in[49]
*159 la_data_in[4]
*160 la_data_in[50]
*161 la_data_in[51]
*162 la_data_in[52]
*163 la_data_in[53]
*164 la_data_in[54]
*165 la_data_in[55]
*166 la_data_in[56]
*167 la_data_in[57]
*168 la_data_in[58]
*169 la_data_in[59]
*170 la_data_in[5]
*171 la_data_in[60]
*172 la_data_in[61]
*173 la_data_in[62]
*174 la_data_in[63]
*175 la_data_in[6]
*176 la_data_in[7]
*177 la_data_in[8]
*178 la_data_in[9]
*179 la_data_out[0]
*180 la_data_out[10]
*181 la_data_out[11]
*182 la_data_out[12]
*183 la_data_out[13]
*184 la_data_out[14]
*185 la_data_out[15]
*186 la_data_out[16]
*187 la_data_out[17]
*188 la_data_out[18]
*189 la_data_out[19]
*190 la_data_out[1]
*191 la_data_out[20]
*192 la_data_out[21]
*193 la_data_out[22]
*194 la_data_out[23]
*195 la_data_out[24]
*196 la_data_out[25]
*197 la_data_out[26]
*198 la_data_out[27]
*199 la_data_out[28]
*200 la_data_out[29]
*201 la_data_out[2]
*202 la_data_out[30]
*203 la_data_out[31]
*204 la_data_out[32]
*205 la_data_out[33]
*206 la_data_out[34]
*207 la_data_out[35]
*208 la_data_out[36]
*209 la_data_out[37]
*210 la_data_out[38]
*211 la_data_out[39]
*212 la_data_out[3]
*213 la_data_out[40]
*214 la_data_out[41]
*215 la_data_out[42]
*216 la_data_out[43]
*217 la_data_out[44]
*218 la_data_out[45]
*219 la_data_out[46]
*220 la_data_out[47]
*221 la_data_out[48]
*222 la_data_out[49]
*223 la_data_out[4]
*224 la_data_out[50]
*225 la_data_out[51]
*226 la_data_out[52]
*227 la_data_out[53]
*228 la_data_out[54]
*229 la_data_out[55]
*230 la_data_out[56]
*231 la_data_out[57]
*232 la_data_out[58]
*233 la_data_out[59]
*234 la_data_out[5]
*235 la_data_out[60]
*236 la_data_out[61]
*237 la_data_out[62]
*238 la_data_out[63]
*239 la_data_out[6]
*240 la_data_out[7]
*241 la_data_out[8]
*242 la_data_out[9]
*243 la_oenb[0]
*244 la_oenb[10]
*245 la_oenb[11]
*246 la_oenb[12]
*247 la_oenb[13]
*248 la_oenb[14]
*249 la_oenb[15]
*250 la_oenb[16]
*251 la_oenb[17]
*252 la_oenb[18]
*253 la_oenb[19]
*254 la_oenb[1]
*255 la_oenb[20]
*256 la_oenb[21]
*257 la_oenb[22]
*258 la_oenb[23]
*259 la_oenb[24]
*260 la_oenb[25]
*261 la_oenb[26]
*262 la_oenb[27]
*263 la_oenb[28]
*264 la_oenb[29]
*265 la_oenb[2]
*266 la_oenb[30]
*267 la_oenb[31]
*268 la_oenb[32]
*269 la_oenb[33]
*270 la_oenb[34]
*271 la_oenb[35]
*272 la_oenb[36]
*273 la_oenb[37]
*274 la_oenb[38]
*275 la_oenb[39]
*276 la_oenb[3]
*277 la_oenb[40]
*278 la_oenb[41]
*279 la_oenb[42]
*280 la_oenb[43]
*281 la_oenb[44]
*282 la_oenb[45]
*283 la_oenb[46]
*284 la_oenb[47]
*285 la_oenb[48]
*286 la_oenb[49]
*287 la_oenb[4]
*288 la_oenb[50]
*289 la_oenb[51]
*290 la_oenb[52]
*291 la_oenb[53]
*292 la_oenb[54]
*293 la_oenb[55]
*294 la_oenb[56]
*295 la_oenb[57]
*296 la_oenb[58]
*297 la_oenb[59]
*298 la_oenb[5]
*299 la_oenb[60]
*300 la_oenb[61]
*301 la_oenb[62]
*302 la_oenb[63]
*303 la_oenb[6]
*304 la_oenb[7]
*305 la_oenb[8]
*306 la_oenb[9]
*307 user_clock2
*308 user_irq[0]
*309 user_irq[1]
*310 user_irq[2]
*313 wb_clk_i
*314 wb_rst_i
*315 wbs_ack_o
*316 wbs_adr_i[0]
*317 wbs_adr_i[10]
*318 wbs_adr_i[11]
*319 wbs_adr_i[12]
*320 wbs_adr_i[13]
*321 wbs_adr_i[14]
*322 wbs_adr_i[15]
*323 wbs_adr_i[16]
*324 wbs_adr_i[17]
*325 wbs_adr_i[18]
*326 wbs_adr_i[19]
*327 wbs_adr_i[1]
*328 wbs_adr_i[20]
*329 wbs_adr_i[21]
*330 wbs_adr_i[22]
*331 wbs_adr_i[23]
*332 wbs_adr_i[24]
*333 wbs_adr_i[25]
*334 wbs_adr_i[26]
*335 wbs_adr_i[27]
*336 wbs_adr_i[28]
*337 wbs_adr_i[29]
*338 wbs_adr_i[2]
*339 wbs_adr_i[30]
*340 wbs_adr_i[31]
*341 wbs_adr_i[3]
*342 wbs_adr_i[4]
*343 wbs_adr_i[5]
*344 wbs_adr_i[6]
*345 wbs_adr_i[7]
*346 wbs_adr_i[8]
*347 wbs_adr_i[9]
*348 wbs_cyc_i
*349 wbs_dat_i[0]
*350 wbs_dat_i[10]
*351 wbs_dat_i[11]
*352 wbs_dat_i[12]
*353 wbs_dat_i[13]
*354 wbs_dat_i[14]
*355 wbs_dat_i[15]
*356 wbs_dat_i[16]
*357 wbs_dat_i[17]
*358 wbs_dat_i[18]
*359 wbs_dat_i[19]
*360 wbs_dat_i[1]
*361 wbs_dat_i[20]
*362 wbs_dat_i[21]
*363 wbs_dat_i[22]
*364 wbs_dat_i[23]
*365 wbs_dat_i[24]
*366 wbs_dat_i[25]
*367 wbs_dat_i[26]
*368 wbs_dat_i[27]
*369 wbs_dat_i[28]
*370 wbs_dat_i[29]
*371 wbs_dat_i[2]
*372 wbs_dat_i[30]
*373 wbs_dat_i[31]
*374 wbs_dat_i[3]
*375 wbs_dat_i[4]
*376 wbs_dat_i[5]
*377 wbs_dat_i[6]
*378 wbs_dat_i[7]
*379 wbs_dat_i[8]
*380 wbs_dat_i[9]
*381 wbs_dat_o[0]
*382 wbs_dat_o[10]
*383 wbs_dat_o[11]
*384 wbs_dat_o[12]
*385 wbs_dat_o[13]
*386 wbs_dat_o[14]
*387 wbs_dat_o[15]
*388 wbs_dat_o[16]
*389 wbs_dat_o[17]
*390 wbs_dat_o[18]
*391 wbs_dat_o[19]
*392 wbs_dat_o[1]
*393 wbs_dat_o[20]
*394 wbs_dat_o[21]
*395 wbs_dat_o[22]
*396 wbs_dat_o[23]
*397 wbs_dat_o[24]
*398 wbs_dat_o[25]
*399 wbs_dat_o[26]
*400 wbs_dat_o[27]
*401 wbs_dat_o[28]
*402 wbs_dat_o[29]
*403 wbs_dat_o[2]
*404 wbs_dat_o[30]
*405 wbs_dat_o[31]
*406 wbs_dat_o[3]
*407 wbs_dat_o[4]
*408 wbs_dat_o[5]
*409 wbs_dat_o[6]
*410 wbs_dat_o[7]
*411 wbs_dat_o[8]
*412 wbs_dat_o[9]
*413 wbs_sel_i[0]
*414 wbs_sel_i[1]
*415 wbs_sel_i[2]
*416 wbs_sel_i[3]
*417 wbs_stb_i
*418 wbs_we_i
*419 mprj

*PORTS
io_in[0] I
io_in[10] I
io_in[11] I
io_in[12] I
io_in[13] I
io_in[14] I
io_in[15] I
io_in[16] I
io_in[17] I
io_in[18] I
io_in[19] I
io_in[1] I
io_in[20] I
io_in[21] I
io_in[22] I
io_in[23] I
io_in[24] I
io_in[25] I
io_in[26] I
io_in[27] I
io_in[28] I
io_in[29] I
io_in[2] I
io_in[30] I
io_in[31] I
io_in[32] I
io_in[33] I
io_in[34] I
io_in[35] I
io_in[36] I
io_in[37] I
io_in[3] I
io_in[4] I
io_in[5] I
io_in[6] I
io_in[7] I
io_in[8] I
io_in[9] I
io_oeb[0] O
io_oeb[10] O
io_oeb[11] O
io_oeb[12] O
io_oeb[13] O
io_oeb[14] O
io_oeb[15] O
io_oeb[16] O
io_oeb[17] O
io_oeb[18] O
io_oeb[19] O
io_oeb[1] O
io_oeb[20] O
io_oeb[21] O
io_oeb[22] O
io_oeb[23] O
io_oeb[24] O
io_oeb[25] O
io_oeb[26] O
io_oeb[27] O
io_oeb[28] O
io_oeb[29] O
io_oeb[2] O
io_oeb[30] O
io_oeb[31] O
io_oeb[32] O
io_oeb[33] O
io_oeb[34] O
io_oeb[35] O
io_oeb[36] O
io_oeb[37] O
io_oeb[3] O
io_oeb[4] O
io_oeb[5] O
io_oeb[6] O
io_oeb[7] O
io_oeb[8] O
io_oeb[9] O
io_out[0] O
io_out[10] O
io_out[11] O
io_out[12] O
io_out[13] O
io_out[14] O
io_out[15] O
io_out[16] O
io_out[17] O
io_out[18] O
io_out[19] O
io_out[1] O
io_out[20] O
io_out[21] O
io_out[22] O
io_out[23] O
io_out[24] O
io_out[25] O
io_out[26] O
io_out[27] O
io_out[28] O
io_out[29] O
io_out[2] O
io_out[30] O
io_out[31] O
io_out[32] O
io_out[33] O
io_out[34] O
io_out[35] O
io_out[36] O
io_out[37] O
io_out[3] O
io_out[4] O
io_out[5] O
io_out[6] O
io_out[7] O
io_out[8] O
io_out[9] O
la_data_in[0] I
la_data_in[10] I
la_data_in[11] I
la_data_in[12] I
la_data_in[13] I
la_data_in[14] I
la_data_in[15] I
la_data_in[16] I
la_data_in[17] I
la_data_in[18] I
la_data_in[19] I
la_data_in[1] I
la_data_in[20] I
la_data_in[21] I
la_data_in[22] I
la_data_in[23] I
la_data_in[24] I
la_data_in[25] I
la_data_in[26] I
la_data_in[27] I
la_data_in[28] I
la_data_in[29] I
la_data_in[2] I
la_data_in[30] I
la_data_in[31] I
la_data_in[32] I
la_data_in[33] I
la_data_in[34] I
la_data_in[35] I
la_data_in[36] I
la_data_in[37] I
la_data_in[38] I
la_data_in[39] I
la_data_in[3] I
la_data_in[40] I
la_data_in[41] I
la_data_in[42] I
la_data_in[43] I
la_data_in[44] I
la_data_in[45] I
la_data_in[46] I
la_data_in[47] I
la_data_in[48] I
la_data_in[49] I
la_data_in[4] I
la_data_in[50] I
la_data_in[51] I
la_data_in[52] I
la_data_in[53] I
la_data_in[54] I
la_data_in[55] I
la_data_in[56] I
la_data_in[57] I
la_data_in[58] I
la_data_in[59] I
la_data_in[5] I
la_data_in[60] I
la_data_in[61] I
la_data_in[62] I
la_data_in[63] I
la_data_in[6] I
la_data_in[7] I
la_data_in[8] I
la_data_in[9] I
la_data_out[0] O
la_data_out[10] O
la_data_out[11] O
la_data_out[12] O
la_data_out[13] O
la_data_out[14] O
la_data_out[15] O
la_data_out[16] O
la_data_out[17] O
la_data_out[18] O
la_data_out[19] O
la_data_out[1] O
la_data_out[20] O
la_data_out[21] O
la_data_out[22] O
la_data_out[23] O
la_data_out[24] O
la_data_out[25] O
la_data_out[26] O
la_data_out[27] O
la_data_out[28] O
la_data_out[29] O
la_data_out[2] O
la_data_out[30] O
la_data_out[31] O
la_data_out[32] O
la_data_out[33] O
la_data_out[34] O
la_data_out[35] O
la_data_out[36] O
la_data_out[37] O
la_data_out[38] O
la_data_out[39] O
la_data_out[3] O
la_data_out[40] O
la_data_out[41] O
la_data_out[42] O
la_data_out[43] O
la_data_out[44] O
la_data_out[45] O
la_data_out[46] O
la_data_out[47] O
la_data_out[48] O
la_data_out[49] O
la_data_out[4] O
la_data_out[50] O
la_data_out[51] O
la_data_out[52] O
la_data_out[53] O
la_data_out[54] O
la_data_out[55] O
la_data_out[56] O
la_data_out[57] O
la_data_out[58] O
la_data_out[59] O
la_data_out[5] O
la_data_out[60] O
la_data_out[61] O
la_data_out[62] O
la_data_out[63] O
la_data_out[6] O
la_data_out[7] O
la_data_out[8] O
la_data_out[9] O
la_oenb[0] I
la_oenb[10] I
la_oenb[11] I
la_oenb[12] I
la_oenb[13] I
la_oenb[14] I
la_oenb[15] I
la_oenb[16] I
la_oenb[17] I
la_oenb[18] I
la_oenb[19] I
la_oenb[1] I
la_oenb[20] I
la_oenb[21] I
la_oenb[22] I
la_oenb[23] I
la_oenb[24] I
la_oenb[25] I
la_oenb[26] I
la_oenb[27] I
la_oenb[28] I
la_oenb[29] I
la_oenb[2] I
la_oenb[30] I
la_oenb[31] I
la_oenb[32] I
la_oenb[33] I
la_oenb[34] I
la_oenb[35] I
la_oenb[36] I
la_oenb[37] I
la_oenb[38] I
la_oenb[39] I
la_oenb[3] I
la_oenb[40] I
la_oenb[41] I
la_oenb[42] I
la_oenb[43] I
la_oenb[44] I
la_oenb[45] I
la_oenb[46] I
la_oenb[47] I
la_oenb[48] I
la_oenb[49] I
la_oenb[4] I
la_oenb[50] I
la_oenb[51] I
la_oenb[52] I
la_oenb[53] I
la_oenb[54] I
la_oenb[55] I
la_oenb[56] I
la_oenb[57] I
la_oenb[58] I
la_oenb[59] I
la_oenb[5] I
la_oenb[60] I
la_oenb[61] I
la_oenb[62] I
la_oenb[63] I
la_oenb[6] I
la_oenb[7] I
la_oenb[8] I
la_oenb[9] I
user_clock2 I
user_irq[0] O
user_irq[1] O
user_irq[2] O
wb_clk_i I
wb_rst_i I
wbs_ack_o O
wbs_adr_i[0] I
wbs_adr_i[10] I
wbs_adr_i[11] I
wbs_adr_i[12] I
wbs_adr_i[13] I
wbs_adr_i[14] I
wbs_adr_i[15] I
wbs_adr_i[16] I
wbs_adr_i[17] I
wbs_adr_i[18] I
wbs_adr_i[19] I
wbs_adr_i[1] I
wbs_adr_i[20] I
wbs_adr_i[21] I
wbs_adr_i[22] I
wbs_adr_i[23] I
wbs_adr_i[24] I
wbs_adr_i[25] I
wbs_adr_i[26] I
wbs_adr_i[27] I
wbs_adr_i[28] I
wbs_adr_i[29] I
wbs_adr_i[2] I
wbs_adr_i[30] I
wbs_adr_i[31] I
wbs_adr_i[3] I
wbs_adr_i[4] I
wbs_adr_i[5] I
wbs_adr_i[6] I
wbs_adr_i[7] I
wbs_adr_i[8] I
wbs_adr_i[9] I
wbs_cyc_i I
wbs_dat_i[0] I
wbs_dat_i[10] I
wbs_dat_i[11] I
wbs_dat_i[12] I
wbs_dat_i[13] I
wbs_dat_i[14] I
wbs_dat_i[15] I
wbs_dat_i[16] I
wbs_dat_i[17] I
wbs_dat_i[18] I
wbs_dat_i[19] I
wbs_dat_i[1] I
wbs_dat_i[20] I
wbs_dat_i[21] I
wbs_dat_i[22] I
wbs_dat_i[23] I
wbs_dat_i[24] I
wbs_dat_i[25] I
wbs_dat_i[26] I
wbs_dat_i[27] I
wbs_dat_i[28] I
wbs_dat_i[29] I
wbs_dat_i[2] I
wbs_dat_i[30] I
wbs_dat_i[31] I
wbs_dat_i[3] I
wbs_dat_i[4] I
wbs_dat_i[5] I
wbs_dat_i[6] I
wbs_dat_i[7] I
wbs_dat_i[8] I
wbs_dat_i[9] I
wbs_dat_o[0] O
wbs_dat_o[10] O
wbs_dat_o[11] O
wbs_dat_o[12] O
wbs_dat_o[13] O
wbs_dat_o[14] O
wbs_dat_o[15] O
wbs_dat_o[16] O
wbs_dat_o[17] O
wbs_dat_o[18] O
wbs_dat_o[19] O
wbs_dat_o[1] O
wbs_dat_o[20] O
wbs_dat_o[21] O
wbs_dat_o[22] O
wbs_dat_o[23] O
wbs_dat_o[24] O
wbs_dat_o[25] O
wbs_dat_o[26] O
wbs_dat_o[27] O
wbs_dat_o[28] O
wbs_dat_o[29] O
wbs_dat_o[2] O
wbs_dat_o[30] O
wbs_dat_o[31] O
wbs_dat_o[3] O
wbs_dat_o[4] O
wbs_dat_o[5] O
wbs_dat_o[6] O
wbs_dat_o[7] O
wbs_dat_o[8] O
wbs_dat_o[9] O
wbs_sel_i[0] I
wbs_sel_i[1] I
wbs_sel_i[2] I
wbs_sel_i[3] I
wbs_stb_i I
wbs_we_i I

*D_NET *1 0.471078
*CONN
*P io_in[0] I
*I *419:io_in[0] I *D tiny_user_project
*CAP
1 io_in[0] 0.0037337
2 *419:io_in[0] 0.000214806
3 *1:14 0.00581064
4 *1:13 0.00559584
5 *1:11 0.0731824
6 *1:10 0.0769161
7 *1:11 *213:16 0
8 *1:14 *241:13 0.0026187
9 *1:14 *284:15 0.00229545
10 *1:14 *355:13 0.0629101
11 *1:14 *368:11 0.195973
12 *1:14 *391:13 0.0327133
13 *1:14 *399:32 0.0091143
*RES
1 io_in[0] *1:10 46.395 
2 *1:10 *1:11 765.63 
3 *1:11 *1:13 4.5 
4 *1:13 *1:14 287.37 
5 *1:14 *419:io_in[0] 15.48 
*END

*D_NET *2 0.339298
*CONN
*P io_in[10] I
*I *419:io_in[10] I *D tiny_user_project
*CAP
1 io_in[10] 0.071336
2 *419:io_in[10] 0.000730956
3 *2:8 0.0235221
4 *2:7 0.0227912
5 *2:5 0.071336
6 *419:io_in[10] *220:10 0.000255074
7 *2:8 *37:16 0.131405
8 *2:8 *220:11 0.000797884
9 *2:8 *246:21 0.0171238
*RES
1 io_in[10] *2:5 777.645 
2 *2:5 *2:7 4.5 
3 *2:7 *2:8 322.29 
4 *2:8 *419:io_in[10] 21.06 
*END

*D_NET *3 0.556502
*CONN
*P io_in[11] I
*I *419:io_in[11] I *D tiny_user_project
*CAP
1 io_in[11] 0.000280649
2 *419:io_in[11] 0.000976588
3 *3:16 0.0236396
4 *3:15 0.022663
5 *3:13 0.0718317
6 *3:11 0.0721124
7 *419:io_in[11] *419:io_in[14] 0.00281951
8 *3:16 *82:13 0.257717
9 *3:16 *185:13 0.0715027
10 *3:16 *255:11 0.0329588
*RES
1 io_in[11] *3:11 2.655 
2 *3:11 *3:13 783.09 
3 *3:13 *3:15 4.5 
4 *3:15 *3:16 458.55 
5 *3:16 *419:io_in[11] 27.27 
*END

*D_NET *4 0.304866
*CONN
*P io_in[12] I
*I *419:io_in[12] I *D tiny_user_project
*CAP
1 io_in[12] 0.000215438
2 *419:io_in[12] 0.00126118
3 *4:16 0.0440508
4 *4:15 0.0427896
5 *4:13 0.0722793
6 *4:11 0.0724947
7 *419:io_in[12] *419:la_oenb[28] 0.00364847
8 *4:16 *134:11 0.0405694
9 *4:16 *227:15 0.0275577
*RES
1 io_in[12] *4:11 2.115 
2 *4:11 *4:13 788.31 
3 *4:13 *4:15 4.5 
4 *4:15 *4:16 469.71 
5 *4:16 *419:io_in[12] 31.68 
*END

*D_NET *5 0.329429
*CONN
*P io_in[13] I
*I *419:io_in[13] I *D tiny_user_project
*CAP
1 io_in[13] 0.000145659
2 *419:io_in[13] 0.00253423
3 *5:16 0.05141
4 *5:15 0.0488758
5 *5:13 0.0724851
6 *5:11 0.0726308
7 *419:io_in[13] *419:la_data_in[32] 0.000187805
8 *5:16 *112:13 0.0312607
9 *5:16 *128:19 0.0498985
*RES
1 io_in[13] *5:11 1.575 
2 *5:11 *5:13 791.01 
3 *5:13 *5:15 4.5 
4 *5:15 *5:16 575.19 
5 *5:16 *419:io_in[13] 35.19 
*END

*D_NET *6 0.37143
*CONN
*P io_in[14] I
*I *419:io_in[14] I *D tiny_user_project
*CAP
1 io_in[14] 0.00397136
2 *419:io_in[14] 0.00137656
3 *6:12 0.0603247
4 *6:11 0.0589482
5 *6:9 0.0680547
6 *6:7 0.072026
7 *6:9 *49:15 0
8 *6:12 *332:23 0.103909
9 *419:io_in[11] *419:io_in[14] 0.00281951
*RES
1 io_in[14] *6:7 43.425 
2 *6:7 *6:9 742.68 
3 *6:9 *6:11 4.5 
4 *6:11 *6:12 653.31 
5 *6:12 *419:io_in[14] 31.23 
*END

*D_NET *7 0.250906
*CONN
*P io_in[15] I
*I *419:io_in[15] I *D tiny_user_project
*CAP
1 io_in[15] 0.00433622
2 *419:io_in[15] 0.000693367
3 *7:15 0.0102778
4 *7:14 0.00958441
5 *7:12 0.0663866
6 *7:11 0.0663866
7 *7:9 0.0420499
8 *7:7 0.0463861
9 *419:io_in[15] *142:36 2.48679e-05
10 *419:io_in[15] *207:17 0.000117295
11 *419:io_in[15] *342:16 0
12 *419:io_in[15] *349:24 0.00012434
13 *419:io_in[15] *387:11 0.0045384
14 *7:12 *74:21 0
15 *7:15 *68:14 0
*RES
1 io_in[15] *7:7 43.245 
2 *7:7 *7:9 419.94 
3 *7:9 *7:11 4.5 
4 *7:11 *7:12 649.53 
5 *7:12 *7:14 4.5 
6 *7:14 *7:15 93.15 
7 *7:15 *419:io_in[15] 37.17 
*END

*D_NET *8 0.235015
*CONN
*P io_in[16] I
*I *419:io_in[16] I *D tiny_user_project
*CAP
1 io_in[16] 0.000164983
2 *419:io_in[16] 0.000952632
3 *8:19 0.00844687
4 *8:18 0.00749423
5 *8:16 0.0415939
6 *8:15 0.0415939
7 *8:13 0.0613191
8 *8:11 0.0614841
9 *8:16 *419:la_data_in[23] 0
10 *8:16 *110:21 0
11 *8:19 *31:16 0.0104722
12 *8:19 *254:11 0
13 *8:19 *331:19 0.00149348
*RES
1 io_in[16] *8:11 1.935 
2 *8:11 *8:13 611.37 
3 *8:13 *8:15 4.5 
4 *8:15 *8:16 444.33 
5 *8:16 *8:18 4.5 
6 *8:18 *8:19 111.87 
7 *8:19 *419:io_in[16] 12.105 
*END

*D_NET *9 0.183167
*CONN
*P io_in[17] I
*I *419:io_in[17] I *D tiny_user_project
*CAP
1 io_in[17] 0.000291323
2 *419:io_in[17] 0.00113246
3 *9:16 0.0317549
4 *9:15 0.0306224
5 *9:13 0.0567787
6 *9:11 0.05707
7 *419:io_in[17] *419:la_data_in[10] 0.000306186
8 *419:io_in[17] *254:11 0.00374392
9 *9:16 *419:wbs_adr_i[29] 0.00122785
10 *9:16 *76:7 0.000239354
*RES
1 io_in[17] *9:11 3.015 
2 *9:11 *9:13 565.47 
3 *9:13 *9:15 4.5 
4 *9:15 *9:16 335.07 
5 *9:16 *419:io_in[17] 23.355 
*END

*D_NET *10 0.172339
*CONN
*P io_in[18] I
*I *419:io_in[18] I *D tiny_user_project
*CAP
1 io_in[18] 0.000104982
2 *419:io_in[18] 0.000136828
3 *10:19 0.0496307
4 *10:18 0.0494938
5 *10:16 0.0282115
6 *10:15 0.0282115
7 *10:13 0.00635534
8 *10:11 0.00646032
9 *419:io_in[18] *419:wbs_adr_i[0] 0.00031307
10 *419:io_in[18] *142:36 0.000273546
11 *419:io_in[18] *349:24 0.00136774
12 *10:19 *419:wbs_adr_i[0] 0.0017799
*RES
1 io_in[18] *10:11 1.395 
2 *10:11 *10:13 63.27 
3 *10:13 *10:15 4.5 
4 *10:15 *10:16 307.53 
5 *10:16 *10:18 4.5 
6 *10:18 *10:19 494.73 
7 *10:19 *419:io_in[18] 21.33 
*END

*D_NET *11 0.181214
*CONN
*P io_in[19] I
*I *419:io_in[19] I *D tiny_user_project
*CAP
1 io_in[19] 0.000224243
2 *419:io_in[19] 0.00724671
3 *11:21 0.00724671
4 *11:19 0.0316972
5 *11:18 0.0316972
6 *11:16 0.00561168
7 *11:15 0.00561168
8 *11:13 0.0458274
9 *11:11 0.0460516
*RES
1 io_in[19] *11:11 2.475 
2 *11:11 *11:13 457.47 
3 *11:13 *11:15 4.5 
4 *11:15 *11:16 60.93 
5 *11:16 *11:18 4.5 
6 *11:18 *11:19 311.13 
7 *11:19 *11:21 4.5 
8 *11:21 *419:io_in[19] 69.705 
*END

*D_NET *12 0.574054
*CONN
*P io_in[1] I
*I *419:io_in[1] I *D tiny_user_project
*CAP
1 io_in[1] 0.000280649
2 *419:io_in[1] 0.0004425
3 *12:19 0.023561
4 *12:18 0.0231185
5 *12:16 0.03391
6 *12:15 0.03391
7 *12:13 0.00929636
8 *12:11 0.00957701
9 *419:io_in[1] *419:la_oenb[37] 0.00139304
10 *419:io_in[1] *419:wbs_adr_i[24] 0
11 *419:io_in[1] *349:24 0.00012434
12 *419:io_in[1] *379:16 1.81328e-05
13 *12:16 *167:13 0
14 *12:19 *419:la_data_in[53] 0
15 *12:19 *29:19 0.0130349
16 *12:19 *68:15 0.0618584
17 *12:19 *163:16 0.332049
18 *12:19 *207:17 0
19 *12:19 *218:16 0
20 *12:19 *224:17 0
21 *12:19 *235:18 0
22 *12:19 *282:14 0.0314804
23 *12:19 *335:37 0
24 *12:19 *385:15 0
25 *12:19 *399:18 0
*RES
1 io_in[1] *12:11 2.655 
2 *12:11 *12:13 98.37 
3 *12:13 *12:15 4.5 
4 *12:15 *12:16 337.59 
5 *12:16 *12:18 4.5 
6 *12:18 *12:19 660.51 
7 *12:19 *419:io_in[1] 19.8 
*END

*D_NET *13 0.135837
*CONN
*P io_in[20] I
*I *419:io_in[20] I *D tiny_user_project
*CAP
1 io_in[20] 0.00214385
2 *419:io_in[20] 7.80501e-05
3 *13:17 0.0108143
4 *13:16 0.0142728
5 *13:11 0.0484729
6 *13:10 0.0470802
7 *419:io_in[20] *142:34 0.00012693
8 *419:io_in[20] *349:24 0.000870377
9 *13:10 *14:8 0.00665217
10 *13:10 *48:19 0.00439332
11 *13:16 *80:13 0.000932547
*RES
1 io_in[20] *13:10 43.875 
2 *13:10 *13:11 448.47 
3 *13:11 *13:16 48.15 
4 *13:16 *13:17 104.13 
5 *13:17 *419:io_in[20] 10.89 
*END

*D_NET *14 0.719737
*CONN
*P io_in[21] I
*I *419:io_in[21] I *D tiny_user_project
*CAP
1 io_in[21] 0.000708774
2 *419:io_in[21] 0.000113285
3 *14:20 0.000649261
4 *14:19 0.000768728
5 *14:11 0.0487052
6 *14:10 0.0484724
7 *14:8 0.00283807
8 *14:7 0.00354684
9 *419:io_in[21] *419:la_data_in[36] 0.00029173
10 *14:8 io_oeb[20] 0.0209512
11 *14:8 *48:19 0.0604912
12 *14:11 *40:10 0.000296905
13 *14:11 *94:8 0.445895
14 *14:11 *126:11 0.00441906
15 *14:11 *403:10 0
16 *14:19 *62:14 8.5926e-05
17 *14:19 *109:21 0.00515976
18 *14:19 *179:19 0.00515987
19 *14:20 *34:19 0.0322659
20 *14:20 *114:13 0.0322659
21 *13:10 *14:8 0.00665217
*RES
1 io_in[21] *14:7 10.845 
2 *14:7 *14:8 87.57 
3 *14:8 *14:10 4.5 
4 *14:10 *14:11 771.93 
5 *14:11 *14:19 21.6 
6 *14:19 *14:20 46.71 
7 *14:20 *419:io_in[21] 14.9361 
*END

*D_NET *15 0.14957
*CONN
*P io_in[22] I
*I *419:io_in[22] I *D tiny_user_project
*CAP
1 io_in[22] 0.00175792
2 *419:io_in[22] 0.000151458
3 *15:11 0.0542013
4 *15:10 0.0540498
5 *15:8 0.0173119
6 *15:7 0.0190698
7 *15:7 *48:16 0
8 *15:11 *367:25 0.000491006
9 *15:11 *379:47 0.000306879
10 *15:11 *402:20 0.00222999
*RES
1 io_in[22] *15:7 21.825 
2 *15:7 *15:8 189.27 
3 *15:8 *15:10 4.5 
4 *15:10 *15:11 541.89 
5 *15:11 *419:io_in[22] 10.3715 
*END

*D_NET *16 0.203858
*CONN
*P io_in[23] I
*I *419:io_in[23] I *D tiny_user_project
*CAP
1 io_in[23] 0.000104982
2 *419:io_in[23] 0.00073172
3 *16:19 0.00462631
4 *16:18 0.00389459
5 *16:16 0.028229
6 *16:15 0.028229
7 *16:13 0.0525099
8 *16:11 0.0526149
9 *16:16 *73:14 0
10 *16:19 *94:8 0.00437814
11 *16:19 *126:11 0.0285397
*RES
1 io_in[23] *16:11 1.395 
2 *16:11 *16:13 524.97 
3 *16:13 *16:15 4.5 
4 *16:15 *16:16 303.03 
5 *16:16 *16:18 4.5 
6 *16:18 *16:19 61.11 
7 *16:19 *419:io_in[23] 11.385 
*END

*D_NET *17 0.338016
*CONN
*P io_in[24] I
*I *419:io_in[24] I *D tiny_user_project
*CAP
1 io_in[24] 0.00530956
2 *419:io_in[24] 0.000392807
3 *17:11 0.0219674
4 *17:10 0.0215746
5 *17:8 0.0768782
6 *17:7 0.0768782
7 *17:5 0.00530956
8 *419:io_in[24] *419:wbs_dat_i[2] 3.68254e-05
9 *419:io_in[24] *137:13 0.000282328
10 *17:11 *419:la_data_in[41] 2.71831e-05
11 *17:11 *419:la_data_in[58] 0.00462072
12 *17:11 *419:wbs_dat_i[16] 0.00297124
13 *17:11 *419:wbs_dat_i[25] 0.00022666
14 *17:11 *42:13 0.029775
15 *17:11 *79:13 0.0252993
16 *17:11 *83:18 0.00864071
17 *17:11 *83:19 0
18 *17:11 *323:26 0.00160376
19 *17:11 *332:20 0.00150431
20 *17:11 *363:12 0.0139239
21 *17:11 *373:16 0.000202779
22 *17:11 *383:13 0.0405906
23 *17:11 *395:21 0
*RES
1 io_in[24] *17:5 57.465 
2 *17:5 *17:7 4.5 
3 *17:7 *17:8 767.43 
4 *17:8 *17:10 4.5 
5 *17:10 *17:11 304.47 
6 *17:11 *419:io_in[24] 17.8161 
*END

*D_NET *18 0.324921
*CONN
*P io_in[25] I
*I *419:io_in[25] I *D tiny_user_project
*CAP
1 io_in[25] 0.00258768
2 *419:io_in[25] 0.000754102
3 *18:19 0.00925833
4 *18:18 0.00850423
5 *18:16 0.0700805
6 *18:15 0.0726681
7 *419:io_in[25] *419:la_oenb[16] 0
8 *419:io_in[25] *85:18 4.47532e-05
9 *419:io_in[25] *250:17 0
10 *18:19 *65:11 0.134224
11 *18:19 *324:8 0.00149674
12 *18:19 *333:16 0.0253026
*RES
1 io_in[25] *18:15 31.905 
2 *18:15 *18:16 699.75 
3 *18:16 *18:18 4.5 
4 *18:18 *18:19 194.31 
5 *18:19 *419:io_in[25] 20.3361 
*END

*D_NET *19 0.131001
*CONN
*P io_in[26] I
*I *419:io_in[26] I *D tiny_user_project
*CAP
1 io_in[26] 0.00010158
2 *419:io_in[26] 0.000231217
3 *19:19 0.0110467
4 *19:18 0.0108154
5 *19:16 0.0457127
6 *19:15 0.0457127
7 *19:13 0.0085454
8 *19:11 0.00864698
9 *419:io_in[26] *419:wbs_stb_i 0.000187805
*RES
1 io_in[26] *19:11 1.215 
2 *19:11 *19:13 92.61 
3 *19:13 *19:15 4.5 
4 *19:15 *19:16 456.39 
5 *19:16 *19:18 4.5 
6 *19:18 *19:19 99.63 
7 *19:19 *419:io_in[26] 11.7 
*END

*D_NET *20 0.124933
*CONN
*P io_in[27] I
*I *419:io_in[27] I *D tiny_user_project
*CAP
1 io_in[27] 0.00112395
2 *419:io_in[27] 9.45207e-05
3 *20:11 0.0194885
4 *20:10 0.0193939
5 *20:8 0.041854
6 *20:7 0.0429779
*RES
1 io_in[27] *20:7 16.065 
2 *20:7 *20:8 417.87 
3 *20:8 *20:10 4.5 
4 *20:10 *20:11 180.63 
5 *20:11 *419:io_in[27] 9.81 
*END

*D_NET *21 0.103646
*CONN
*P io_in[28] I
*I *419:io_in[28] I *D tiny_user_project
*CAP
1 io_in[28] 0.00165081
2 *419:io_in[28] 0.000142241
3 *21:11 0.0170656
4 *21:10 0.0169233
5 *21:8 0.0331067
6 *21:7 0.0347575
*RES
1 io_in[28] *21:7 21.465 
2 *21:7 *21:8 330.57 
3 *21:8 *21:10 4.5 
4 *21:10 *21:11 175.23 
5 *21:11 *419:io_in[28] 10.62 
*END

*D_NET *22 0.0967195
*CONN
*P io_in[29] I
*I *419:io_in[29] I *D tiny_user_project
*CAP
1 io_in[29] 0.00766894
2 *419:io_in[29] 0.000230983
3 *22:11 0.0111648
4 *22:10 0.0109338
5 *22:8 0.029526
6 *22:7 0.029526
7 *22:5 0.00766894
*RES
1 io_in[29] *22:5 81.765 
2 *22:5 *22:7 4.5 
3 *22:7 *22:8 294.39 
4 *22:8 *22:10 4.5 
5 *22:10 *22:11 110.43 
6 *22:11 *419:io_in[29] 11.7 
*END

*D_NET *23 0.370529
*CONN
*P io_in[2] I
*I *419:io_in[2] I *D tiny_user_project
*CAP
1 io_in[2] 0.000239227
2 *419:io_in[2] 0.000374484
3 *23:11 0.048476
4 *23:10 0.0481015
5 *23:8 0.0147508
6 *23:7 0.01499
7 *419:io_in[2] *192:14 0.00083929
8 *419:io_in[2] *307:16 0.00251788
9 *23:8 *39:8 0.13963
10 *23:8 *40:14 0.0128889
11 *23:11 *76:7 0
12 *23:11 *167:16 0
13 *23:11 *252:16 0.0877216
*RES
1 io_in[2] *23:7 6.525 
2 *23:7 *23:8 261.45 
3 *23:8 *23:10 4.5 
4 *23:10 *23:11 572.85 
5 *23:11 *419:io_in[2] 15.435 
*END

*D_NET *24 0.253056
*CONN
*P io_in[30] I
*I *419:io_in[30] I *D tiny_user_project
*CAP
1 io_in[30] 0.000237175
2 *419:io_in[30] 0.000998458
3 *24:19 0.00550195
4 *24:18 0.00450349
5 *24:16 0.0361895
6 *24:15 0.0361895
7 *24:13 0.0129419
8 *24:11 0.013179
9 *419:io_in[30] *79:12 0.000280576
10 *24:16 *396:13 0
11 *24:16 *412:20 0
12 *24:19 *71:16 0.12179
13 *24:19 *286:16 0.00355997
14 *24:19 *359:8 0.0035359
15 *24:19 *365:8 0.00163195
16 *24:19 *367:16 0.0041032
17 *24:19 *370:8 0.00126412
18 *24:19 *387:17 0.0071494
*RES
1 io_in[30] *24:11 2.295 
2 *24:11 *24:13 138.51 
3 *24:13 *24:15 4.5 
4 *24:15 *24:16 359.55 
5 *24:16 *24:18 4.5 
6 *24:18 *24:19 187.83 
7 *24:19 *419:io_in[30] 23.0361 
*END

*D_NET *25 0.0774829
*CONN
*P io_in[31] I
*I *419:io_in[31] I *D tiny_user_project
*CAP
1 io_in[31] 0.00201185
2 *419:io_in[31] 7.56843e-05
3 *25:19 0.0170023
4 *25:18 0.0169266
5 *25:16 0.0197273
6 *25:15 0.0217392
*RES
1 io_in[31] *25:15 25.425 
2 *25:15 *25:16 197.01 
3 *25:16 *25:18 4.5 
4 *25:18 *25:19 172.53 
5 *25:19 *419:io_in[31] 9.81 
*END

*D_NET *26 0.36387
*CONN
*P io_in[32] I
*I *419:io_in[32] I *D tiny_user_project
*CAP
1 io_in[32] 0.000310538
2 *419:io_in[32] 0.00138528
3 *26:19 0.00496601
4 *26:18 0.00358073
5 *26:16 0.0228896
6 *26:15 0.0228896
7 *26:13 0.0108584
8 *26:11 0.011169
9 *419:io_in[32] la_data_out[2] 0.00104339
10 *26:19 *46:13 0.0788931
11 *26:19 *93:13 0.174137
12 *26:19 *101:13 0.0317477
*RES
1 io_in[32] *26:11 2.835 
2 *26:11 *26:13 114.21 
3 *26:13 *26:15 4.5 
4 *26:15 *26:16 227.25 
5 *26:16 *26:18 4.5 
6 *26:18 *26:19 252.09 
7 *26:19 *419:io_in[32] 28.4361 
*END

*D_NET *27 0.0634936
*CONN
*P io_in[33] I
*I *419:io_in[33] I *D tiny_user_project
*CAP
1 io_in[33] 0.000167681
2 *419:io_in[33] 7.56843e-05
3 *27:19 0.00927939
4 *27:18 0.0092037
5 *27:16 0.0124662
6 *27:15 0.0124662
7 *27:13 0.00983354
8 *27:11 0.0100012
9 *27:16 *344:13 0
*RES
1 io_in[33] *27:11 1.755 
2 *27:11 *27:13 103.41 
3 *27:13 *27:15 4.5 
4 *27:15 *27:16 124.11 
5 *27:16 *27:18 4.5 
6 *27:18 *27:19 88.83 
7 *27:19 *419:io_in[33] 9.81 
*END

*D_NET *28 0.0610691
*CONN
*P io_in[34] I
*I *419:io_in[34] I *D tiny_user_project
*CAP
1 io_in[34] 0.00398374
2 *419:io_in[34] 0.000107104
3 *28:11 0.013907
4 *28:10 0.0137999
5 *28:8 0.0106264
6 *28:7 0.0146102
7 *419:io_in[34] *419:la_data_in[27] 3.52204e-05
8 *28:8 *349:13 0
9 *28:11 *419:la_data_in[27] 0.00399951
*RES
1 io_in[34] *28:7 45.765 
2 *28:7 *28:8 105.93 
3 *28:8 *28:10 4.5 
4 *28:10 *28:11 150.93 
5 *28:11 *419:io_in[34] 10.26 
*END

*D_NET *29 0.361872
*CONN
*P io_in[35] I
*I *419:io_in[35] I *D tiny_user_project
*CAP
1 io_in[35] 0.00226708
2 *419:io_in[35] 0.000711994
3 *29:19 0.00855997
4 *29:18 0.00784798
5 *29:16 0.0216617
6 *29:15 0.0239288
7 *419:io_in[35] *419:la_data_in[31] 5.83069e-05
8 *419:io_in[35] *142:34 1.81328e-05
9 *419:io_in[35] *349:24 0.00012434
10 *29:15 *107:10 0.00192726
11 *29:19 *64:13 0.0469171
12 *29:19 *68:15 0.187565
13 *29:19 *163:16 0.0086416
14 *29:19 *207:21 0.0386074
15 *12:19 *29:19 0.0130349
*RES
1 io_in[35] *29:15 29.025 
2 *29:15 *29:16 216.27 
3 *29:16 *29:18 4.5 
4 *29:18 *29:19 340.65 
5 *29:19 *419:io_in[35] 20.16 
*END

*D_NET *30 0.230819
*CONN
*P io_in[36] I
*I *419:io_in[36] I *D tiny_user_project
*CAP
1 io_in[36] 0.00010158
2 *419:io_in[36] 0.00147057
3 *30:16 0.0192076
4 *30:15 0.017737
5 *30:13 0.0385444
6 *30:11 0.038646
7 *419:io_in[36] *419:wbs_dat_i[0] 3.26391e-05
8 *30:13 *271:14 0
9 *30:13 *313:16 0
10 *30:16 *32:16 0
11 *30:16 *69:8 0.106241
12 *30:16 *234:8 0.00883811
*RES
1 io_in[36] *30:11 1.215 
2 *30:11 *30:13 399.15 
3 *30:13 *30:15 4.5 
4 *30:15 *30:16 254.07 
5 *30:16 *419:io_in[36] 18.945 
*END

*D_NET *31 0.386677
*CONN
*P io_in[37] I
*I *419:io_in[37] I *D tiny_user_project
*CAP
1 io_in[37] 0.000310538
2 *419:io_in[37] 0.000700439
3 *31:16 0.00924156
4 *31:15 0.00854113
5 *31:13 0.0376353
6 *31:11 0.0379458
7 *419:io_in[37] *308:5 0.000237772
8 *31:16 *126:11 0.204197
9 *31:16 *313:19 0.0746943
10 *31:16 *331:19 0.00270053
11 *8:19 *31:16 0.0104722
*RES